AeroDyn airfoil file Created with QBlade v0.963 64bit on 29.01.2021 at 08:57:44 Compatible with AeroDyn v13.0.
Polar "T1_Re0.160_M0.00_N9.0" on Foil "WORTMANN FX 63-137 AIRFOIL EXTRA REFINED 2" :: generated by QBlade
1              Number of airfoil tables in this file
0              Table ID parameter
18.90          Stall angle (deg)
0              No longer used, enter zero
0              No longer used, enter zero
0              No longer used, enter zero
-7.87          Angle of attack for zero Cn for linear Cn curve (deg)
3.86612        Cn slope for zero lift for linear Cn curve (1/rad)
-0.0022        Cn at stall value for positive angle of attack for linear Cn curve
-0.0164        Cn at stall value for negative angle of attack for linear Cn curve
-2.80          Angle of attack for minimum CD (deg)
0.0169         Minimum CD value
     -8.00   -0.0061    0.0750
     -7.90   -0.0037    0.0738
     -7.80    0.0079    0.0736
     -7.70   -0.0004    0.0720
     -7.50    0.0078    0.0706
     -7.40   -0.0047    0.0689
     -7.30    0.0088    0.0687
     -7.20    0.0045    0.0677
     -7.10   -0.0128    0.0647
     -6.30    0.0249    0.0336
     -6.10    0.0531    0.0304
     -6.00    0.0641    0.0297
     -5.90    0.0759    0.0288
     -5.80    0.0887    0.0280
     -5.70    0.1026    0.0270
     -5.60    0.1160    0.0263
     -5.50    0.1287    0.0257
     -5.40    0.1411    0.0251
     -5.30    0.1533    0.0246
     -5.20    0.1653    0.0242
     -5.10    0.1771    0.0238
     -5.00    0.1888    0.0234
     -4.90    0.2003    0.0230
     -4.80    0.2117    0.0226
     -4.70    0.2230    0.0223
     -4.60    0.2342    0.0220
     -4.50    0.2455    0.0217
     -4.40    0.2567    0.0214
     -4.30    0.2680    0.0211
     -4.20    0.2795    0.0209
     -4.10    0.2911    0.0206
     -4.00    0.3022    0.0204
     -3.90    0.3137    0.0201
     -3.80    0.3255    0.0199
     -3.70    0.3375    0.0197
     -3.60    0.3498    0.0195
     -3.50    0.3625    0.0193
     -3.40    0.3756    0.0190
     -3.30    0.3892    0.0188
     -3.20    0.4034    0.0186
     -3.10    0.4190    0.0183
     -3.00    0.4352    0.0180
     -2.90    0.4611    0.0170
     -2.80    0.4749    0.0169
     -2.70    0.4866    0.0170
     -2.60    0.4979    0.0171
     -2.50    0.5090    0.0172
     -2.40    0.5198    0.0173
     -2.30    0.5309    0.0174
     -2.20    0.5414    0.0175
     -2.10    0.5519    0.0176
     -2.00    0.5621    0.0177
     -1.90    0.5722    0.0178
     -1.80    0.5822    0.0179
     -1.70    0.5921    0.0181
     -1.60    0.6022    0.0182
     -1.50    0.6124    0.0183
     -1.40    0.6222    0.0184
     -1.30    0.6317    0.0184
     -1.20    0.6420    0.0185
     -1.10    0.6520    0.0186
     -1.00    0.6613    0.0187
     -0.90    0.6714    0.0188
     -0.80    0.6813    0.0189
     -0.70    0.6903    0.0189
     -0.60    0.7007    0.0190
     -0.50    0.7100    0.0191
     -0.40    0.7202    0.0191
     -0.30    0.7303    0.0192
     -0.20    0.7405    0.0192
     -0.10    0.7506    0.0193
      0.00    0.7618    0.0193
      0.10    0.7715    0.0194
      0.20    0.7831    0.0194
      0.30    0.7925    0.0195
      0.40    0.8029    0.0195
      0.50    0.8136    0.0196
      0.60    0.8233    0.0196
      0.70    0.8348    0.0197
      0.80    0.8441    0.0197
      0.90    0.8546    0.0198
      1.00    0.8653    0.0198
      1.10    0.8750    0.0199
      1.20    0.8861    0.0199
      1.30    0.8959    0.0200
      1.40    0.9059    0.0200
      1.50    0.9171    0.0201
      1.60    0.9264    0.0201
      1.70    0.9366    0.0202
      1.80    0.9471    0.0203
      1.90    0.9565    0.0203
      2.00    0.9673    0.0204
      2.10    0.9764    0.0205
      2.20    0.9863    0.0206
      2.30    0.9961    0.0206
      2.40    1.0055    0.0207
      2.50    1.0159    0.0208
      2.60    1.0249    0.0209
      2.70    1.0353    0.0209
      2.80    1.0445    0.0210
      2.90    1.0540    0.0211
      3.00    1.0639    0.0212
      3.10    1.0729    0.0213
      3.20    1.0831    0.0214
      3.30    1.0917    0.0215
      3.40    1.1015    0.0216
      3.50    1.1102    0.0216
      3.60    1.1194    0.0217
      3.70    1.1281    0.0218
      3.80    1.1370    0.0219
      3.90    1.1456    0.0220
      4.00    1.1543    0.0221
      4.10    1.1626    0.0222
      4.20    1.1714    0.0223
      4.30    1.1793    0.0224
      4.40    1.1879    0.0226
      4.50    1.1959    0.0227
      4.60    1.2038    0.0228
      4.70    1.2118    0.0229
      4.80    1.2195    0.0230
      4.90    1.2265    0.0231
      5.00    1.2334    0.0232
      5.10    1.2400    0.0233
      5.20    1.2462    0.0234
      5.30    1.2518    0.0235
      5.40    1.2558    0.0235
      5.50    1.2567    0.0235
      5.60    1.2613    0.0235
      5.70    1.2728    0.0238
      5.80    1.2839    0.0240
      5.90    1.2946    0.0242
      6.00    1.3048    0.0245
      6.10    1.3145    0.0247
      6.20    1.3239    0.0249
      6.30    1.3330    0.0252
      6.40    1.3418    0.0254
      6.50    1.3504    0.0257
      6.60    1.3588    0.0259
      6.70    1.3669    0.0262
      6.80    1.3749    0.0264
      6.90    1.3827    0.0267
      7.00    1.3904    0.0270
      7.10    1.3980    0.0273
      7.20    1.4054    0.0275
      7.30    1.4127    0.0278
      7.40    1.4199    0.0281
      7.50    1.4270    0.0284
      7.60    1.4341    0.0287
      7.70    1.4410    0.0291
      7.80    1.4478    0.0294
      7.90    1.4545    0.0297
      8.00    1.4612    0.0300
      8.10    1.4677    0.0304
      8.20    1.4742    0.0307
      8.30    1.4806    0.0311
      8.40    1.4869    0.0315
      8.50    1.4932    0.0318
      8.60    1.4993    0.0322
      8.70    1.5054    0.0326
      8.80    1.5114    0.0330
      8.90    1.5173    0.0334
      9.00    1.5231    0.0339
      9.10    1.5288    0.0343
      9.20    1.5345    0.0347
      9.30    1.5400    0.0352
      9.40    1.5455    0.0356
      9.50    1.5509    0.0361
      9.60    1.5563    0.0366
      9.70    1.5615    0.0371
      9.80    1.5666    0.0376
      9.90    1.5717    0.0381
     10.00    1.5767    0.0386
     10.10    1.5815    0.0391
     10.20    1.5863    0.0397
     10.30    1.5910    0.0403
     10.40    1.5956    0.0408
     10.50    1.6001    0.0414
     10.60    1.6044    0.0420
     10.70    1.6087    0.0426
     10.80    1.6128    0.0433
     10.90    1.6168    0.0439
     11.00    1.6207    0.0446
     11.10    1.6244    0.0453
     11.20    1.6279    0.0460
     11.30    1.6313    0.0467
     11.40    1.6345    0.0475
     11.50    1.6375    0.0483
     11.60    1.6403    0.0491
     11.70    1.6428    0.0499
     11.80    1.6451    0.0508
     11.90    1.6470    0.0518
     12.00    1.6487    0.0527
     12.10    1.6500    0.0537
     12.20    1.6510    0.0548
     12.30    1.6517    0.0559
     12.40    1.6521    0.0571
     12.50    1.6523    0.0583
     12.60    1.6524    0.0595
     12.70    1.6524    0.0607
     12.80    1.6525    0.0619
     12.90    1.6526    0.0632
     13.00    1.6530    0.0644
     13.10    1.6536    0.0656
     13.20    1.6545    0.0667
     13.30    1.6558    0.0678
     13.40    1.6577    0.0688
     13.50    1.6601    0.0698
     13.60    1.6632    0.0707
     13.70    1.6670    0.0714
     13.80    1.6717    0.0721
     13.90    1.6757    0.0729
     14.00    1.6773    0.0739
     14.10    1.6792    0.0750
     14.20    1.6818    0.0759
     14.30    1.6836    0.0770
     14.40    1.6856    0.0781
     14.50    1.6880    0.0791
     14.60    1.6910    0.0799
     14.70    1.6962    0.0805
     14.80    1.6972    0.0817
     14.90    1.6989    0.0828
     15.00    1.7013    0.0838
     15.10    1.7043    0.0847
     15.20    1.7087    0.0854
     15.30    1.7148    0.0858
     15.40    1.7146    0.0873
     15.50    1.7153    0.0885
     15.60    1.7167    0.0897
     15.70    1.7189    0.0907
     15.80    1.7221    0.0916
     15.90    1.7271    0.0922
     16.00    1.7295    0.0932
     16.10    1.7289    0.0947
     16.20    1.7290    0.0960
     16.30    1.7296    0.0973
     16.40    1.7305    0.0986
     16.50    1.7322    0.0997
     16.60    1.7352    0.1005
     16.70    1.7366    0.1017
     16.80    1.7356    0.1033
     16.90    1.7353    0.1047
     17.00    1.7354    0.1062
     17.10    1.7358    0.1075
     17.20    1.7367    0.1088
     17.30    1.7384    0.1098
     17.40    1.7412    0.1107
     17.50    1.7402    0.1124
     17.60    1.7399    0.1139
     17.70    1.7399    0.1153
     17.80    1.7400    0.1167
     17.90    1.7404    0.1181
     18.00    1.7415    0.1193
     18.10    1.7437    0.1203
     18.20    1.7450    0.1215
     18.30    1.7436    0.1232
     18.40    1.7427    0.1248
     18.50    1.7421    0.1264
     18.60    1.7419    0.1279
     18.70    1.7425    0.1292
     18.80    1.7446    0.1302
     18.90    1.7470    0.1311
     19.00    1.7444    0.1331
     19.10    1.7424    0.1349
     19.20    1.7409    0.1367
     19.30    1.7401    0.1383
     19.40    1.7403    0.1397
     19.50    1.7429    0.1405
     19.60    1.7438    0.1418
     19.70    1.7402    0.1440
     19.80    1.7372    0.1461
     19.90    1.7347    0.1481
     20.00    1.7330    0.1500
