AeroDyn airfoil file Created with QBlade v0.963 64bit on 29.01.2021 at 08:57:42 Compatible with AeroDyn v13.0.
Polar "T1_Re0.006_M0.00_N9.0" on Foil "WORTMANN FX 63-137 AIRFOIL EXTRA REFINED 2" :: generated by QBlade
1              Number of airfoil tables in this file
0              Table ID parameter
20.00          Stall angle (deg)
0              No longer used, enter zero
0              No longer used, enter zero
0              No longer used, enter zero
1.62           Angle of attack for zero Cn for linear Cn curve (deg)
5.98467        Cn slope for zero lift for linear Cn curve (1/rad)
-0.0254        Cn at stall value for positive angle of attack for linear Cn curve
-0.0289        Cn at stall value for negative angle of attack for linear Cn curve
1.30           Angle of attack for minimum CD (deg)
0.0506         Minimum CD value
     -8.00   -0.0147    0.1030
     -7.90   -0.0144    0.1025
     -7.80   -0.0141    0.1019
     -7.70   -0.0138    0.1014
     -7.60   -0.0136    0.1009
     -7.50   -0.0134    0.1004
     -7.40   -0.0133    0.0999
     -7.30   -0.0132    0.0994
     -7.20   -0.0131    0.0989
     -7.10   -0.0131    0.0984
     -7.00   -0.0131    0.0979
     -6.90   -0.0131    0.0974
     -6.80   -0.0131    0.0969
     -6.70   -0.0132    0.0964
     -6.60   -0.0133    0.0959
     -6.50   -0.0135    0.0954
     -6.40   -0.0136    0.0949
     -6.30   -0.0138    0.0944
     -6.20   -0.0141    0.0939
     -6.10   -0.0144    0.0934
     -6.00   -0.0147    0.0929
     -5.90   -0.0150    0.0924
     -5.80   -0.0154    0.0919
     -5.70   -0.0158    0.0915
     -5.60   -0.0163    0.0910
     -5.50   -0.0168    0.0905
     -5.40   -0.0173    0.0900
     -5.30   -0.0179    0.0895
     -5.20   -0.0185    0.0890
     -5.10   -0.0191    0.0885
     -5.00   -0.0198    0.0880
     -4.90   -0.0206    0.0875
     -4.80   -0.0213    0.0870
     -4.70   -0.0222    0.0865
     -4.60   -0.0231    0.0860
     -4.50   -0.0240    0.0855
     -4.40   -0.0250    0.0850
     -4.30   -0.0261    0.0845
     -4.20   -0.0272    0.0840
     -4.10   -0.0283    0.0835
     -4.00   -0.0296    0.0830
     -3.90   -0.0309    0.0825
     -3.80   -0.0322    0.0820
     -3.70   -0.0337    0.0815
     -3.60   -0.0352    0.0809
     -3.50   -0.0368    0.0804
     -3.40   -0.0385    0.0799
     -3.30   -0.0402    0.0794
     -3.20   -0.0421    0.0788
     -3.10   -0.0440    0.0783
     -3.00   -0.0461    0.0777
     -2.90   -0.0483    0.0772
     -2.80   -0.0505    0.0766
     -2.70   -0.0529    0.0761
     -2.60   -0.0554    0.0755
     -2.50   -0.0581    0.0749
     -2.40   -0.0608    0.0743
     -2.30   -0.0638    0.0737
     -2.20   -0.0668    0.0731
     -2.10   -0.0700    0.0725
     -2.00   -0.0733    0.0719
     -1.90   -0.0768    0.0712
     -1.80   -0.0805    0.0706
     -1.70   -0.0843    0.0699
     -1.60   -0.0882    0.0692
     -1.50   -0.0923    0.0685
     -1.40   -0.0965    0.0678
     -1.30   -0.1009    0.0670
     -1.20   -0.1054    0.0662
     -1.10   -0.1099    0.0655
     -1.00   -0.1145    0.0646
     -0.90   -0.1192    0.0638
     -0.80   -0.1238    0.0629
     -0.70   -0.1284    0.0620
     -0.60   -0.1329    0.0611
     -0.50   -0.1373    0.0601
     -0.40   -0.1415    0.0591
     -0.30   -0.1452    0.0581
     -0.20   -0.1477    0.0570
     -0.10   -0.1487    0.0560
      0.00   -0.1477    0.0550
      0.10   -0.1445    0.0541
      0.20   -0.1392    0.0533
      0.30   -0.1322    0.0527
      0.40   -0.1238    0.0521
      0.50   -0.1145    0.0517
      0.60   -0.1047    0.0514
      0.70   -0.0945    0.0512
      0.80   -0.0842    0.0510
      0.90   -0.0737    0.0508
      1.00   -0.0633    0.0507
      1.10   -0.0529    0.0507
      1.20   -0.0425    0.0506
      1.30   -0.0322    0.0506
      1.40   -0.0220    0.0507
      1.50   -0.0119    0.0507
      1.60   -0.0019    0.0508
      1.70    0.0081    0.0508
      1.80    0.0290    0.0554
      1.90    0.0531    0.0590
      2.00    0.0746    0.0611
      2.10    0.0941    0.0627
      2.20    0.1119    0.0640
      2.30    0.1285    0.0650
      2.40    0.1442    0.0660
      2.50    0.1592    0.0669
      2.60    0.1735    0.0677
      2.70    0.1872    0.0685
      2.80    0.2005    0.0692
      2.90    0.2133    0.0700
      3.00    0.2258    0.0707
      3.10    0.2380    0.0714
      3.20    0.2498    0.0721
      3.30    0.2613    0.0727
      3.40    0.2726    0.0734
      3.50    0.2837    0.0741
      3.60    0.2945    0.0747
      3.70    0.3051    0.0754
      3.80    0.3155    0.0761
      3.90    0.3258    0.0767
      4.00    0.3358    0.0774
      4.10    0.3457    0.0781
      4.20    0.3555    0.0787
      4.30    0.3651    0.0794
      4.40    0.3745    0.0801
      4.50    0.3838    0.0808
      4.60    0.3930    0.0814
      4.70    0.4021    0.0821
      4.80    0.4111    0.0828
      4.90    0.4199    0.0835
      5.00    0.4286    0.0842
      5.10    0.4372    0.0849
      5.20    0.4458    0.0856
      5.30    0.4542    0.0863
      5.40    0.4625    0.0870
      5.50    0.4707    0.0877
      5.60    0.4789    0.0884
      5.70    0.4869    0.0891
      5.80    0.4949    0.0899
      5.90    0.5028    0.0906
      6.00    0.5106    0.0913
      6.10    0.5184    0.0921
      6.20    0.5261    0.0928
      6.30    0.5336    0.0936
      6.40    0.5412    0.0943
      6.50    0.5487    0.0951
      6.60    0.5561    0.0959
      6.70    0.5634    0.0966
      6.80    0.5707    0.0974
      6.90    0.5779    0.0982
      7.00    0.5851    0.0989
      7.10    0.5922    0.0997
      7.20    0.5992    0.1005
      7.30    0.6062    0.1013
      7.40    0.6132    0.1021
      7.50    0.6201    0.1029
      7.60    0.6269    0.1037
      7.70    0.6337    0.1045
      7.80    0.6404    0.1054
      7.90    0.6471    0.1062
      8.00    0.6537    0.1070
      8.10    0.6603    0.1078
      8.20    0.6669    0.1087
      8.30    0.6734    0.1095
      8.40    0.6799    0.1104
      8.50    0.6863    0.1112
      8.60    0.6927    0.1121
      8.70    0.6990    0.1129
      8.80    0.7053    0.1138
      8.90    0.7116    0.1146
      9.00    0.7179    0.1155
      9.10    0.7241    0.1164
      9.20    0.7302    0.1172
      9.30    0.7364    0.1181
      9.40    0.7425    0.1190
      9.50    0.7485    0.1199
      9.60    0.7545    0.1208
      9.70    0.7605    0.1217
      9.80    0.7665    0.1226
      9.90    0.7724    0.1235
     10.00    0.7783    0.1244
     10.10    0.7841    0.1253
     10.20    0.7900    0.1262
     10.30    0.7958    0.1272
     10.40    0.8016    0.1281
     10.50    0.8073    0.1290
     10.60    0.8131    0.1299
     10.70    0.8188    0.1309
     10.80    0.8245    0.1318
     10.90    0.8301    0.1327
     11.00    0.8358    0.1337
     11.10    0.8414    0.1346
     11.20    0.8469    0.1356
     11.30    0.8525    0.1365
     11.40    0.8580    0.1375
     11.50    0.8635    0.1385
     11.60    0.8690    0.1394
     11.70    0.8744    0.1404
     11.80    0.8798    0.1414
     11.90    0.8852    0.1424
     12.00    0.8906    0.1434
     12.10    0.8960    0.1444
     12.20    0.9013    0.1454
     12.30    0.9066    0.1464
     12.40    0.9119    0.1474
     12.50    0.9172    0.1484
     12.60    0.9224    0.1494
     12.70    0.9277    0.1503
     12.80    0.9329    0.1513
     12.90    0.9381    0.1523
     13.00    0.9432    0.1534
     13.10    0.9483    0.1544
     13.20    0.9535    0.1554
     13.30    0.9585    0.1564
     13.40    0.9636    0.1574
     13.50    0.9686    0.1584
     13.60    0.9736    0.1594
     13.70    0.9786    0.1605
     13.80    0.9835    0.1615
     13.90    0.9885    0.1625
     14.00    0.9934    0.1635
     14.10    0.9983    0.1646
     14.20    1.0032    0.1656
     14.30    1.0080    0.1666
     14.40    1.0129    0.1677
     14.50    1.0177    0.1687
     14.60    1.0225    0.1697
     14.70    1.0273    0.1708
     14.80    1.0321    0.1718
     14.90    1.0369    0.1729
     15.00    1.0416    0.1739
     15.10    1.0463    0.1750
     15.20    1.0510    0.1760
     15.30    1.0557    0.1771
     15.40    1.0603    0.1781
     15.50    1.0649    0.1792
     15.60    1.0695    0.1802
     15.70    1.0741    0.1813
     15.80    1.0786    0.1823
     15.90    1.0831    0.1834
     16.00    1.0876    0.1845
     16.10    1.0921    0.1855
     16.20    1.0965    0.1866
     16.30    1.1009    0.1877
     16.40    1.1053    0.1888
     16.50    1.1097    0.1899
     16.60    1.1140    0.1910
     16.70    1.1183    0.1921
     16.80    1.1226    0.1932
     16.90    1.1269    0.1943
     17.00    1.1311    0.1954
     17.10    1.1353    0.1965
     17.20    1.1395    0.1977
     17.30    1.1437    0.1988
     17.40    1.1479    0.2000
     17.50    1.1520    0.2011
     17.60    1.1561    0.2023
     17.70    1.1602    0.2035
     17.80    1.1643    0.2046
     17.90    1.1683    0.2058
     18.00    1.1724    0.2070
     18.10    1.1764    0.2082
     18.20    1.1804    0.2094
     18.30    1.1844    0.2106
     18.40    1.1883    0.2118
     18.50    1.1923    0.2130
     18.60    1.1962    0.2143
     18.70    1.2001    0.2155
     18.80    1.2040    0.2167
     18.90    1.2078    0.2180
     19.00    1.2117    0.2192
     19.10    1.2155    0.2204
     19.20    1.2193    0.2217
     19.30    1.2231    0.2229
     19.40    1.2269    0.2242
     19.50    1.2307    0.2254
     19.60    1.2344    0.2267
     19.70    1.2382    0.2280
     19.80    1.2419    0.2292
     19.90    1.2456    0.2305
     20.00    1.2493    0.2318
