AeroDyn airfoil file Created with QBlade v0.963 64bit on 03.02.2021 at 08:58:07 Compatible with AeroDyn v13.0.
Polar "T1_Re0.150_M0.00_N9.0" on Foil "SG6042" :: generated by QBlade
1              Number of airfoil tables in this file
0              Table ID parameter
14.20          Stall angle (deg)
0              No longer used, enter zero
0              No longer used, enter zero
0              No longer used, enter zero
-4.14          Angle of attack for zero Cn for linear Cn curve (deg)
5.21871        Cn slope for zero lift for linear Cn curve (1/rad)
-0.2117        Cn at stall value for positive angle of attack for linear Cn curve
-0.2340        Cn at stall value for negative angle of attack for linear Cn curve
-0.70          Angle of attack for minimum CD (deg)
0.0137         Minimum CD value
     -8.00   -0.2061    0.0827
     -7.90   -0.2117    0.0812
     -7.80   -0.2195    0.0797
     -7.70   -0.2256    0.0774
     -7.60   -0.2157    0.0769
     -7.50   -0.2071    0.0761
     -7.40   -0.2037    0.0751
     -7.30   -0.2017    0.0740
     -7.20   -0.2001    0.0727
     -7.10   -0.1995    0.0710
     -7.00   -0.2092    0.0665
     -6.90   -0.2036    0.0652
     -6.80   -0.1971    0.0646
     -6.70   -0.1916    0.0639
     -6.60   -0.1868    0.0629
     -6.50   -0.1827    0.0615
     -6.40   -0.1846    0.0578
     -6.30   -0.1781    0.0569
     -6.20   -0.1718    0.0562
     -6.10   -0.1659    0.0553
     -5.90   -0.1564    0.0517
     -5.80   -0.1499    0.0509
     -5.70   -0.1432    0.0499
     -5.60   -0.1377    0.0479
     -5.50   -0.1307    0.0470
     -5.40   -0.1233    0.0460
     -5.30   -0.1166    0.0444
     -5.20   -0.1090    0.0436
     -5.10   -0.1013    0.0422
     -5.00   -0.0936    0.0413
     -4.90   -0.0855    0.0402
     -4.80   -0.0775    0.0394
     -4.70   -0.0683    0.0390
     -4.60   -0.0513    0.0333
     -4.50   -0.0433    0.0323
     -4.40   -0.0351    0.0325
     -4.30   -0.0269    0.0321
     -4.20   -0.0059    0.0246
     -4.10    0.0046    0.0238
     -4.00    0.0152    0.0232
     -3.90    0.0258    0.0226
     -3.80    0.0358    0.0220
     -3.70    0.0462    0.0216
     -3.60    0.0567    0.0212
     -3.50    0.0674    0.0208
     -3.40    0.0782    0.0204
     -3.30    0.0882    0.0199
     -3.20    0.0986    0.0196
     -3.10    0.1092    0.0193
     -3.00    0.1192    0.0189
     -2.90    0.1296    0.0186
     -2.80    0.1397    0.0182
     -2.70    0.1500    0.0179
     -2.60    0.1601    0.0176
     -2.50    0.1704    0.0173
     -2.40    0.1806    0.0170
     -2.30    0.1909    0.0167
     -2.20    0.2012    0.0165
     -2.10    0.2113    0.0162
     -2.00    0.2212    0.0157
     -1.90    0.2284    0.0147
     -1.80    0.2335    0.0142
     -1.70    0.2400    0.0141
     -1.60    0.2467    0.0141
     -1.50    0.2533    0.0140
     -1.40    0.2596    0.0140
     -1.30    0.2657    0.0139
     -1.20    0.2718    0.0139
     -1.10    0.2782    0.0138
     -1.00    0.2863    0.0138
     -0.90    0.2999    0.0137
     -0.80    0.3225    0.0137
     -0.70    0.3419    0.0137
     -0.60    0.3519    0.0137
     -0.50    0.3623    0.0137
     -0.40    0.3729    0.0138
     -0.30    0.3835    0.0138
     -0.20    0.3942    0.0139
     -0.10    0.4050    0.0139
      0.00    0.4157    0.0139
      0.10    0.4264    0.0140
      0.20    0.4372    0.0140
      0.30    0.4479    0.0141
      0.40    0.4586    0.0141
      0.50    0.4693    0.0142
      0.60    0.4799    0.0142
      0.70    0.4905    0.0143
      0.80    0.5012    0.0144
      0.90    0.5118    0.0144
      1.00    0.5223    0.0145
      1.10    0.5329    0.0145
      1.20    0.5434    0.0146
      1.30    0.5540    0.0147
      1.40    0.5645    0.0147
      1.50    0.5749    0.0148
      1.60    0.5854    0.0149
      1.70    0.5958    0.0149
      1.80    0.6062    0.0150
      1.90    0.6166    0.0151
      2.00    0.6270    0.0151
      2.10    0.6374    0.0152
      2.20    0.6477    0.0153
      2.30    0.6580    0.0153
      2.40    0.6683    0.0154
      2.50    0.6786    0.0155
      2.60    0.6888    0.0156
      2.70    0.6990    0.0157
      2.80    0.7092    0.0157
      2.90    0.7194    0.0158
      3.00    0.7296    0.0159
      3.10    0.7397    0.0160
      3.20    0.7498    0.0161
      3.30    0.7599    0.0161
      3.40    0.7699    0.0162
      3.50    0.7800    0.0163
      3.60    0.7900    0.0164
      3.70    0.7999    0.0165
      3.80    0.8099    0.0166
      3.90    0.8198    0.0167
      4.00    0.8297    0.0168
      4.10    0.8396    0.0169
      4.20    0.8494    0.0170
      4.30    0.8592    0.0171
      4.40    0.8690    0.0172
      4.50    0.8787    0.0173
      4.60    0.8884    0.0174
      4.70    0.8981    0.0175
      4.80    0.9077    0.0176
      4.90    0.9173    0.0177
      5.00    0.9269    0.0178
      5.10    0.9364    0.0179
      5.20    0.9459    0.0180
      5.30    0.9554    0.0182
      5.40    0.9648    0.0183
      5.50    0.9742    0.0184
      5.60    0.9835    0.0185
      5.70    0.9928    0.0186
      5.80    1.0020    0.0188
      5.90    1.0112    0.0189
      6.00    1.0204    0.0190
      6.10    1.0295    0.0191
      6.20    1.0385    0.0193
      6.30    1.0475    0.0194
      6.40    1.0564    0.0195
      6.50    1.0653    0.0197
      6.60    1.0741    0.0198
      6.70    1.0828    0.0200
      6.80    1.0913    0.0201
      6.90    1.0997    0.0203
      7.00    1.1081    0.0204
      7.10    1.1164    0.0206
      7.20    1.1246    0.0207
      7.30    1.1328    0.0209
      7.40    1.1409    0.0211
      7.50    1.1490    0.0212
      7.60    1.1570    0.0214
      7.70    1.1650    0.0216
      7.80    1.1728    0.0218
      7.90    1.1806    0.0220
      8.00    1.1883    0.0222
      8.10    1.1960    0.0224
      8.20    1.2035    0.0226
      8.30    1.2109    0.0228
      8.40    1.2182    0.0230
      8.50    1.2254    0.0232
      8.60    1.2324    0.0235
      8.70    1.2393    0.0237
      8.80    1.2460    0.0240
      8.90    1.2526    0.0243
      9.00    1.2589    0.0246
      9.10    1.2650    0.0249
      9.20    1.2708    0.0252
      9.30    1.2764    0.0256
      9.40    1.2818    0.0259
      9.50    1.2868    0.0264
      9.60    1.2916    0.0268
      9.70    1.2963    0.0273
      9.80    1.3010    0.0278
      9.90    1.3059    0.0283
     10.00    1.3115    0.0289
     10.10    1.3183    0.0295
     10.20    1.3272    0.0302
     10.30    1.3402    0.0310
     10.40    1.3536    0.0317
     10.50    1.3605    0.0322
     10.60    1.3657    0.0327
     10.70    1.3732    0.0332
     10.80    1.3796    0.0337
     10.90    1.3845    0.0342
     11.00    1.3918    0.0347
     11.10    1.3990    0.0353
     11.20    1.4030    0.0359
     11.30    1.4090    0.0364
     11.40    1.4190    0.0370
     11.50    1.4214    0.0376
     11.60    1.4260    0.0382
     11.70    1.4336    0.0387
     11.80    1.4408    0.0394
     11.90    1.4433    0.0401
     12.00    1.4478    0.0407
     12.10    1.4550    0.0413
     12.20    1.4635    0.0421
     12.30    1.4640    0.0428
     12.40    1.4673    0.0436
     12.50    1.4722    0.0442
     12.60    1.4812    0.0448
     12.70    1.4873    0.0457
     12.80    1.4858    0.0467
     12.90    1.4864    0.0476
     13.00    1.4892    0.0484
     13.10    1.4936    0.0492
     13.20    1.5020    0.0498
     13.30    1.5106    0.0508
     13.40    1.5059    0.0519
     13.50    1.5021    0.0531
     13.60    1.4992    0.0542
     13.70    1.4971    0.0554
     13.80    1.4959    0.0565
     13.90    1.4960    0.0576
     14.00    1.4987    0.0585
     14.10    1.5044    0.0593
     14.20    1.5201    0.0601
     14.30    1.5121    0.0615
     14.40    1.5042    0.0630
     14.50    1.4963    0.0646
     14.60    1.4883    0.0663
     14.70    1.4802    0.0680
     14.80    1.4721    0.0698
     14.90    1.4637    0.0716
     15.00    1.4552    0.0736
     15.10    1.4464    0.0756
     15.20    1.4374    0.0777
     15.30    1.4281    0.0799
     15.40    1.4185    0.0821
     15.50    1.4086    0.0845
     15.60    1.3984    0.0870
     15.70    1.3879    0.0896
     15.80    1.3772    0.0923
     15.90    1.3662    0.0952
     16.00    1.3550    0.0982
     16.10    1.3437    0.1013
     16.20    1.3322    0.1046
     16.30    1.3206    0.1080
     16.40    1.3091    0.1116
     16.50    1.2976    0.1153
     16.60    1.2862    0.1191
     16.70    1.2751    0.1231
     16.80    1.2643    0.1271
     16.90    1.2540    0.1312
     17.00    1.2442    0.1353
     17.60    1.0672    0.2142
     17.70    1.0695    0.2156
     17.80    1.0734    0.2167
     17.90    1.0787    0.2177
     18.00    1.0859    0.2188
     18.10    1.0976    0.2200
     18.20    1.0913    0.2221
     18.30    1.0840    0.2242
     18.40    1.0857    0.2256
     18.50    1.0889    0.2268
     18.60    1.0933    0.2279
     18.70    1.0992    0.2289
     18.80    1.1079    0.2301
     18.90    1.1148    0.2319
     19.00    1.1038    0.2336
     19.10    1.1035    0.2352
     19.20    1.1060    0.2365
     19.30    1.1094    0.2377
     19.40    1.1137    0.2387
     19.50    1.1194    0.2398
     19.60    1.1284    0.2411
     19.70    1.1295    0.2428
     19.80    1.1233    0.2444
     19.90    1.1245    0.2459
     20.00    1.1272    0.2471
