AeroDyn airfoil file Created with QBlade v0.963 64bit on 03.02.2021 at 08:58:07 Compatible with AeroDyn v13.0.
Polar "T1_Re0.130_M0.00_N9.0" on Foil "SG6042" :: generated by QBlade
1              Number of airfoil tables in this file
0              Table ID parameter
13.10          Stall angle (deg)
0              No longer used, enter zero
0              No longer used, enter zero
0              No longer used, enter zero
-4.09          Angle of attack for zero Cn for linear Cn curve (deg)
5.20744        Cn slope for zero lift for linear Cn curve (1/rad)
-0.2147        Cn at stall value for positive angle of attack for linear Cn curve
-0.2296        Cn at stall value for negative angle of attack for linear Cn curve
-0.90          Angle of attack for minimum CD (deg)
0.0143         Minimum CD value
     -8.00   -0.2201    0.0837
     -7.90   -0.2100    0.0826
     -7.80   -0.2055    0.0815
     -7.70   -0.2031    0.0804
     -7.60   -0.2025    0.0793
     -7.50   -0.2046    0.0780
     -7.40   -0.2107    0.0766
     -7.30   -0.2198    0.0735
     -7.20   -0.2129    0.0725
     -7.10   -0.2053    0.0720
     -7.00   -0.2001    0.0712
     -6.90   -0.1969    0.0699
     -6.80   -0.1960    0.0680
     -6.70   -0.2007    0.0647
     -6.60   -0.1930    0.0641
     -6.50   -0.1869    0.0635
     -6.40   -0.1823    0.0623
     -6.20   -0.1766    0.0585
     -6.10   -0.1705    0.0577
     -6.00   -0.1653    0.0563
     -5.90   -0.1617    0.0542
     -5.80   -0.1552    0.0534
     -5.70   -0.1489    0.0523
     -5.60   -0.1437    0.0505
     -5.50   -0.1368    0.0495
     -5.40   -0.1305    0.0480
     -5.30   -0.1235    0.0471
     -5.20   -0.1165    0.0458
     -5.10   -0.1092    0.0449
     -5.00   -0.1019    0.0438
     -4.90   -0.0940    0.0429
     -4.80   -0.0865    0.0418
     -4.70   -0.0785    0.0408
     -4.50   -0.0434    0.0296
     -4.40   -0.0316    0.0279
     -4.30   -0.0214    0.0270
     -4.20   -0.0110    0.0262
     -4.10   -0.0005    0.0254
     -4.00    0.0102    0.0247
     -3.90    0.0204    0.0240
     -3.80    0.0306    0.0235
     -3.70    0.0411    0.0230
     -3.60    0.0518    0.0225
     -3.50    0.0625    0.0220
     -3.40    0.0734    0.0216
     -3.30    0.0835    0.0211
     -3.20    0.0939    0.0207
     -3.10    0.1046    0.0203
     -3.00    0.1147    0.0199
     -2.90    0.1252    0.0196
     -2.80    0.1352    0.0192
     -2.70    0.1454    0.0188
     -2.60    0.1556    0.0185
     -2.50    0.1659    0.0181
     -2.40    0.1759    0.0178
     -2.30    0.1860    0.0175
     -2.20    0.1961    0.0172
     -2.10    0.2061    0.0169
     -2.00    0.2157    0.0163
     -1.90    0.2207    0.0151
     -1.80    0.2250    0.0148
     -1.70    0.2305    0.0147
     -1.60    0.2361    0.0147
     -1.50    0.2417    0.0146
     -1.40    0.2470    0.0146
     -1.30    0.2525    0.0145
     -1.20    0.2593    0.0144
     -1.10    0.2709    0.0144
     -1.00    0.2939    0.0143
     -0.90    0.3181    0.0143
     -0.80    0.3274    0.0143
     -0.70    0.3373    0.0144
     -0.60    0.3476    0.0144
     -0.50    0.3580    0.0144
     -0.40    0.3685    0.0144
     -0.30    0.3791    0.0145
     -0.20    0.3898    0.0145
     -0.10    0.4005    0.0146
      0.00    0.4111    0.0146
      0.10    0.4218    0.0147
      0.20    0.4325    0.0147
      0.30    0.4431    0.0148
      0.40    0.4538    0.0148
      0.50    0.4644    0.0149
      0.60    0.4750    0.0149
      0.70    0.4856    0.0150
      0.80    0.4962    0.0150
      0.90    0.5067    0.0151
      1.00    0.5173    0.0152
      1.10    0.5278    0.0152
      1.20    0.5383    0.0153
      1.30    0.5488    0.0154
      1.40    0.5592    0.0154
      1.50    0.5697    0.0155
      1.60    0.5801    0.0156
      1.70    0.5905    0.0156
      1.80    0.6009    0.0157
      1.90    0.6113    0.0158
      2.00    0.6216    0.0158
      2.10    0.6319    0.0159
      2.20    0.6422    0.0160
      2.30    0.6525    0.0161
      2.40    0.6628    0.0161
      2.50    0.6730    0.0162
      2.60    0.6832    0.0163
      2.70    0.6934    0.0164
      2.80    0.7036    0.0165
      2.90    0.7137    0.0165
      3.00    0.7238    0.0166
      3.10    0.7339    0.0167
      3.20    0.7440    0.0168
      3.30    0.7540    0.0169
      3.40    0.7640    0.0170
      3.50    0.7740    0.0171
      3.60    0.7840    0.0172
      3.70    0.7939    0.0173
      3.80    0.8038    0.0174
      3.90    0.8137    0.0175
      4.00    0.8236    0.0176
      4.10    0.8334    0.0177
      4.20    0.8432    0.0178
      4.30    0.8530    0.0179
      4.40    0.8627    0.0180
      4.50    0.8724    0.0181
      4.60    0.8820    0.0182
      4.70    0.8917    0.0183
      4.80    0.9013    0.0184
      4.90    0.9108    0.0185
      5.00    0.9203    0.0186
      5.10    0.9298    0.0187
      5.20    0.9393    0.0189
      5.30    0.9487    0.0190
      5.40    0.9580    0.0191
      5.50    0.9674    0.0192
      5.60    0.9766    0.0194
      5.70    0.9859    0.0195
      5.80    0.9951    0.0196
      5.90    1.0042    0.0198
      6.00    1.0133    0.0199
      6.10    1.0223    0.0200
      6.20    1.0313    0.0202
      6.30    1.0403    0.0203
      6.40    1.0491    0.0205
      6.50    1.0580    0.0206
      6.60    1.0667    0.0208
      6.70    1.0754    0.0209
      6.80    1.0839    0.0211
      6.90    1.0923    0.0212
      7.00    1.1006    0.0214
      7.10    1.1088    0.0215
      7.20    1.1170    0.0217
      7.30    1.1251    0.0219
      7.40    1.1331    0.0220
      7.50    1.1411    0.0222
      7.60    1.1491    0.0224
      7.70    1.1569    0.0226
      7.80    1.1647    0.0228
      7.90    1.1725    0.0230
      8.00    1.1801    0.0232
      8.10    1.1876    0.0234
      8.20    1.1951    0.0236
      8.30    1.2024    0.0238
      8.40    1.2097    0.0241
      8.50    1.2168    0.0243
      8.60    1.2238    0.0246
      8.70    1.2306    0.0248
      8.80    1.2373    0.0251
      8.90    1.2439    0.0254
      9.00    1.2502    0.0257
      9.10    1.2564    0.0260
      9.20    1.2623    0.0263
      9.30    1.2680    0.0267
      9.40    1.2735    0.0270
      9.50    1.2787    0.0274
      9.60    1.2837    0.0279
      9.70    1.2885    0.0283
      9.80    1.2932    0.0288
      9.90    1.2979    0.0293
     10.00    1.3028    0.0299
     10.10    1.3084    0.0305
     10.20    1.3151    0.0311
     10.30    1.3237    0.0317
     10.40    1.3357    0.0325
     10.50    1.3548    0.0334
     10.60    1.3783    0.0345
     10.70    1.3868    0.0351
     10.80    1.3916    0.0356
     10.90    1.4000    0.0362
     11.00    1.4074    0.0368
     11.10    1.4118    0.0374
     11.20    1.4197    0.0380
     11.30    1.4283    0.0387
     11.40    1.4312    0.0393
     11.50    1.4373    0.0399
     11.60    1.4512    0.0406
     11.70    1.4506    0.0414
     11.80    1.4540    0.0421
     11.90    1.4603    0.0427
     12.00    1.4744    0.0435
     12.10    1.4723    0.0443
     12.20    1.4732    0.0451
     12.30    1.4775    0.0458
     12.40    1.4856    0.0465
     12.50    1.4965    0.0474
     12.60    1.4929    0.0484
     12.70    1.4910    0.0494
     12.80    1.4908    0.0503
     12.90    1.4929    0.0512
     13.00    1.4997    0.0519
     13.10    1.5174    0.0528
     13.20    1.5108    0.0540
     13.30    1.5047    0.0551
     13.40    1.4990    0.0564
     13.50    1.4938    0.0577
     13.60    1.4889    0.0590
     13.70    1.4844    0.0603
     13.80    1.4805    0.0616
     13.90    1.4774    0.0628
     14.00    1.4759    0.0640
     14.10    1.4789    0.0649
     14.20    1.5038    0.0654
     14.30    1.4945    0.0670
     14.40    1.4851    0.0686
     14.50    1.4756    0.0703
     14.60    1.4659    0.0721
     14.70    1.4562    0.0740
     14.80    1.4463    0.0759
     14.90    1.4364    0.0779
     15.00    1.4263    0.0801
     15.10    1.4160    0.0823
     15.20    1.4057    0.0845
     15.30    1.3953    0.0869
     15.40    1.3848    0.0893
     15.50    1.3742    0.0919
     15.60    1.3636    0.0945
     15.70    1.3531    0.0972
     15.80    1.3426    0.1000
     15.90    1.3322    0.1029
     16.00    1.3219    0.1059
     16.10    1.3118    0.1090
     16.20    1.3020    0.1121
     16.30    1.2924    0.1154
     16.70    0.8249    0.2009
     16.80    0.8239    0.2024
     16.90    0.8231    0.2039
     17.00    0.8223    0.2054
     17.10    0.8216    0.2068
     17.20    0.8211    0.2083
     17.30    0.8235    0.2095
     17.40    0.8302    0.2106
     17.50    0.8387    0.2123
     17.60    0.8250    0.2136
     17.70    0.8202    0.2150
     17.80    0.8205    0.2162
     17.90    0.8231    0.2173
     18.00    0.8284    0.2183
     18.10    0.8393    0.2200
     18.20    0.8301    0.2213
     18.30    0.8229    0.2228
     18.40    0.8221    0.2241
     18.50    0.8233    0.2253
     18.60    0.8261    0.2264
     18.70    0.8313    0.2275
     18.80    0.8412    0.2293
     18.90    0.8305    0.2305
     19.00    0.8258    0.2320
     19.10    0.8257    0.2333
     19.20    0.8269    0.2345
     19.30    0.8291    0.2356
     19.40    0.8328    0.2368
     19.50    0.8405    0.2383
     19.60    0.8370    0.2398
     19.70    0.8310    0.2412
     19.80    0.8301    0.2426
     19.90    0.8310    0.2439
     20.00    0.8327    0.2451
