AeroDyn airfoil file Created with QBlade v0.963 64bit on 05.02.2021 at 09:23:20 Compatible with AeroDyn v13.0.
Polar "T1_Re0.060_M0.00_N9.0" on Foil "NACA 64(2)-415" :: generated by QBlade
1              Number of airfoil tables in this file
0              Table ID parameter
11.50          Stall angle (deg)
0              No longer used, enter zero
0              No longer used, enter zero
0              No longer used, enter zero
-2.16          Angle of attack for zero Cn for linear Cn curve (deg)
6.13697        Cn slope for zero lift for linear Cn curve (1/rad)
-0.3343        Cn at stall value for positive angle of attack for linear Cn curve
-0.4826        Cn at stall value for negative angle of attack for linear Cn curve
-5.10          Angle of attack for minimum CD (deg)
0.0232         Minimum CD value
     -8.00   -0.5674    0.0448
     -7.90   -0.5598    0.0437
     -7.80   -0.5520    0.0426
     -7.70   -0.5439    0.0416
     -7.60   -0.5357    0.0407
     -7.50   -0.5273    0.0397
     -7.40   -0.5188    0.0388
     -7.30   -0.5102    0.0379
     -7.20   -0.5015    0.0371
     -7.10   -0.4923    0.0362
     -7.00   -0.4818    0.0355
     -6.90   -0.4718    0.0348
     -6.80   -0.4620    0.0341
     -6.70   -0.4523    0.0334
     -6.60   -0.4415    0.0327
     -6.50   -0.4311    0.0321
     -6.40   -0.4207    0.0315
     -6.30   -0.4100    0.0309
     -6.20   -0.3994    0.0303
     -6.10   -0.3888    0.0298
     -6.00   -0.3784    0.0293
     -5.90   -0.3682    0.0288
     -5.80   -0.3586    0.0283
     -5.70   -0.3494    0.0278
     -5.60   -0.3409    0.0273
     -5.50   -0.3333    0.0267
     -5.40   -0.3267    0.0261
     -5.30   -0.3217    0.0253
     -5.20   -0.3195    0.0241
     -5.10   -0.3229    0.0232
     -5.00   -0.3196    0.0243
     -4.90   -0.3133    0.0254
     -4.80   -0.3061    0.0264
     -4.70   -0.2985    0.0272
     -4.60   -0.2909    0.0280
     -4.50   -0.2824    0.0288
     -4.40   -0.2749    0.0293
     -4.30   -0.2651    0.0301
     -4.20   -0.2554    0.0308
     -4.10   -0.2478    0.0312
     -4.00   -0.2343    0.0320
     -3.90   -0.2213    0.0326
     -3.80   -0.2093    0.0330
     -3.70   -0.1898    0.0335
     -3.60   -0.1793    0.0337
     -3.50   -0.1572    0.0339
     -3.40   -0.1395    0.0339
     -3.30   -0.1253    0.0338
     -3.20   -0.1151    0.0336
     -3.10   -0.1034    0.0335
     -3.00   -0.0850    0.0333
     -2.90   -0.0760    0.0330
     -2.80   -0.0666    0.0328
     -2.70   -0.0511    0.0325
     -2.60   -0.0491    0.0323
     -2.50   -0.0296    0.0320
     -2.40   -0.0286    0.0318
     -2.30   -0.0102    0.0315
     -2.20   -0.0052    0.0313
     -2.10    0.0066    0.0311
     -2.00    0.0174    0.0308
     -1.90    0.0196    0.0306
     -1.80    0.0364    0.0304
     -1.70    0.0407    0.0301
     -1.60    0.0508    0.0299
     -1.50    0.0633    0.0297
     -1.40    0.0632    0.0295
     -1.30    0.0797    0.0293
     -1.20    0.0898    0.0291
     -1.10    0.0915    0.0289
     -1.00    0.1084    0.0287
     -0.90    0.1164    0.0285
     -0.80    0.1220    0.0283
     -0.70    0.1370    0.0281
     -0.60    0.1434    0.0279
     -0.50    0.1520    0.0277
     -0.40    0.1657    0.0276
     -0.30    0.1709    0.0274
     -0.20    0.1825    0.0272
     -0.10    0.1952    0.0271
      0.00    0.1987    0.0269
      0.10    0.2145    0.0268
      0.20    0.2261    0.0266
      0.30    0.2334    0.0265
      0.40    0.2491    0.0264
      0.50    0.2581    0.0262
      0.60    0.2716    0.0261
      0.70    0.2848    0.0260
      0.80    0.2949    0.0259
      0.90    0.3106    0.0257
      1.00    0.3203    0.0256
      1.10    0.3374    0.0255
      1.20    0.3483    0.0255
      1.30    0.3654    0.0254
      1.40    0.3774    0.0253
      1.50    0.3949    0.0252
      1.60    0.4087    0.0251
      1.70    0.4257    0.0250
      1.80    0.4410    0.0250
      1.90    0.4569    0.0249
      2.00    0.4739    0.0248
      2.10    0.4901    0.0248
      2.20    0.5070    0.0247
      2.30    0.5241    0.0247
      2.40    0.5410    0.0247
      2.50    0.5491    0.0247
      2.60    0.5519    0.0247
      2.70    0.5543    0.0247
      2.80    0.5564    0.0247
      2.90    0.5582    0.0247
      3.00    0.5595    0.0247
      3.10    0.5603    0.0247
      3.20    0.5607    0.0247
      3.30    0.5605    0.0247
      3.40    0.5598    0.0247
      3.50    0.5584    0.0247
      3.60    0.5565    0.0247
      3.70    0.5541    0.0247
      3.80    0.5515    0.0247
      3.90    0.5495    0.0247
      4.00    0.5502    0.0247
      4.10    0.5539    0.0248
      4.20    0.5596    0.0249
      4.30    0.5667    0.0250
      4.40    0.5745    0.0251
      4.50    0.5829    0.0252
      4.60    0.5916    0.0253
      4.70    0.6005    0.0255
      4.80    0.6097    0.0257
      4.90    0.6189    0.0258
      5.00    0.6282    0.0260
      5.10    0.6375    0.0262
      5.20    0.6468    0.0264
      5.30    0.6561    0.0266
      5.40    0.6653    0.0268
      5.50    0.6744    0.0270
      5.60    0.6835    0.0272
      5.70    0.6924    0.0275
      5.80    0.7012    0.0277
      5.90    0.7100    0.0279
      6.00    0.7186    0.0282
      6.10    0.7271    0.0284
      6.20    0.7355    0.0287
      6.30    0.7438    0.0290
      6.40    0.7520    0.0293
      6.50    0.7601    0.0296
      6.60    0.7680    0.0299
      6.70    0.7759    0.0302
      6.80    0.7836    0.0305
      6.90    0.7912    0.0308
      7.00    0.7988    0.0311
      7.10    0.8062    0.0315
      7.20    0.8135    0.0318
      7.30    0.8208    0.0322
      7.40    0.8279    0.0325
      7.50    0.8349    0.0329
      7.60    0.8419    0.0333
      7.70    0.8487    0.0337
      7.80    0.8555    0.0341
      7.90    0.8621    0.0345
      8.00    0.8687    0.0349
      8.10    0.8751    0.0353
      8.20    0.8815    0.0357
      8.30    0.8877    0.0362
      8.40    0.8939    0.0366
      8.50    0.8999    0.0371
      8.60    0.9059    0.0376
      8.70    0.9117    0.0381
      8.80    0.9174    0.0386
      8.90    0.9230    0.0391
      9.00    0.9284    0.0396
      9.10    0.9337    0.0402
      9.20    0.9388    0.0408
      9.30    0.9437    0.0414
      9.40    0.9484    0.0420
      9.50    0.9529    0.0426
      9.60    0.9571    0.0433
      9.70    0.9609    0.0440
      9.80    0.9644    0.0447
      9.90    0.9675    0.0455
     10.00    0.9703    0.0463
     10.10    0.9729    0.0472
     10.20    0.9756    0.0480
     10.30    0.9788    0.0488
     10.40    0.9834    0.0494
     10.50    0.9909    0.0498
     10.60    1.0061    0.0497
     10.80    1.2040    0.0495
     10.90    1.2253    0.0513
     11.00    1.2390    0.0530
     11.10    1.2587    0.0546
     11.20    1.2589    0.0558
     11.30    1.2595    0.0571
     11.40    1.2602    0.0584
     11.50    1.2606    0.0597
     11.60    1.2604    0.0610
     11.70    1.2594    0.0624
     11.80    1.2574    0.0637
     11.90    1.2548    0.0650
     12.00    1.2513    0.0664
     12.10    1.2469    0.0678
     12.20    1.2416    0.0692
     12.30    1.2354    0.0707
     12.40    1.2283    0.0722
     12.50    1.2204    0.0738
     12.60    1.2120    0.0755
     12.70    1.2030    0.0772
     12.80    1.1937    0.0791
     12.90    1.1840    0.0810
     13.00    1.1743    0.0829
     13.10    1.1646    0.0850
     13.20    1.1550    0.0871
     13.30    1.1456    0.0893
     13.40    1.1365    0.0916
     13.50    1.1280    0.0939
     13.60    1.1204    0.0962
     13.70    1.1141    0.0985
     14.20    0.9739    0.1236
     14.30    0.9519    0.1301
     14.40    0.9344    0.1365
     14.50    0.9228    0.1420
     14.60    0.9158    0.1462
     14.70    0.9107    0.1500
     14.80    0.9070    0.1533
     14.90    0.9042    0.1563
     15.00    0.9022    0.1592
     15.10    0.9007    0.1619
     15.20    0.8996    0.1645
     15.30    0.8990    0.1670
     15.40    0.8987    0.1694
     15.50    0.8987    0.1717
     15.60    0.8989    0.1739
     15.70    0.8994    0.1761
     15.80    0.9001    0.1782
     15.90    0.9009    0.1803
     16.00    0.9019    0.1823
     16.10    0.9030    0.1843
     16.20    0.9043    0.1863
     16.30    0.9057    0.1882
     16.40    0.9072    0.1901
     16.50    0.9088    0.1919
     16.60    0.9105    0.1937
     16.70    0.9123    0.1955
     16.80    0.9141    0.1972
     16.90    0.9160    0.1990
     17.00    0.9180    0.2007
     17.10    0.9200    0.2023
     17.20    0.9220    0.2040
     17.30    0.9240    0.2056
     17.40    0.9262    0.2071
     17.50    0.9284    0.2087
     17.60    0.9306    0.2103
     17.70    0.9329    0.2118
     17.80    0.9353    0.2133
     17.90    0.9377    0.2148
     18.00    0.9402    0.2163
     18.10    0.9428    0.2178
     18.20    0.9453    0.2193
     18.30    0.9479    0.2208
     18.40    0.9506    0.2222
     18.50    0.9533    0.2237
     18.60    0.9560    0.2251
     18.70    0.9588    0.2265
     18.80    0.9615    0.2279
     18.90    0.9644    0.2293
     19.00    0.9672    0.2307
     19.10    0.9701    0.2321
     19.20    0.9729    0.2335
     19.30    0.9759    0.2349
     19.40    0.9788    0.2362
     19.50    0.9817    0.2376
     19.60    0.9847    0.2389
     19.70    0.9877    0.2403
     19.80    0.9907    0.2416
     19.90    0.9937    0.2429
     20.00    0.9967    0.2442
