AeroDyn airfoil file Created with QBlade v0.963 64bit on 05.02.2021 at 09:23:20 Compatible with AeroDyn v13.0.
Polar "T1_Re0.080_M0.00_N9.0" on Foil "NACA 64(2)-415" :: generated by QBlade
1              Number of airfoil tables in this file
0              Table ID parameter
12.00          Stall angle (deg)
0              No longer used, enter zero
0              No longer used, enter zero
0              No longer used, enter zero
-1.44          Angle of attack for zero Cn for linear Cn curve (deg)
5.04484        Cn slope for zero lift for linear Cn curve (1/rad)
-0.3163        Cn at stall value for positive angle of attack for linear Cn curve
-0.4716        Cn at stall value for negative angle of attack for linear Cn curve
-5.00          Angle of attack for minimum CD (deg)
0.0203         Minimum CD value
     -8.00   -0.5639    0.0399
     -7.90   -0.5564    0.0389
     -7.80   -0.5482    0.0379
     -7.70   -0.5384    0.0370
     -7.60   -0.5289    0.0362
     -7.50   -0.5196    0.0355
     -7.40   -0.5102    0.0347
     -7.30   -0.5007    0.0339
     -7.20   -0.4912    0.0332
     -7.10   -0.4817    0.0326
     -7.00   -0.4712    0.0318
     -6.90   -0.4607    0.0312
     -6.80   -0.4504    0.0306
     -6.70   -0.4403    0.0301
     -6.60   -0.4299    0.0295
     -6.50   -0.4193    0.0289
     -6.40   -0.4090    0.0284
     -6.30   -0.3986    0.0279
     -6.20   -0.3884    0.0274
     -6.10   -0.3781    0.0270
     -6.00   -0.3682    0.0265
     -5.90   -0.3583    0.0261
     -5.80   -0.3490    0.0256
     -5.70   -0.3399    0.0252
     -5.60   -0.3311    0.0248
     -5.50   -0.3229    0.0244
     -5.40   -0.3154    0.0239
     -5.30   -0.3083    0.0233
     -5.20   -0.3026    0.0226
     -5.10   -0.2995    0.0214
     -5.00   -0.3019    0.0203
     -4.90   -0.2948    0.0209
     -4.80   -0.2866    0.0214
     -4.70   -0.2782    0.0219
     -4.60   -0.2698    0.0224
     -4.50   -0.2614    0.0228
     -4.40   -0.2531    0.0232
     -4.30   -0.2448    0.0237
     -4.20   -0.2367    0.0241
     -4.10   -0.2286    0.0245
     -4.00   -0.2206    0.0249
     -3.90   -0.2126    0.0253
     -3.80   -0.2047    0.0257
     -3.70   -0.1968    0.0260
     -3.60   -0.1889    0.0264
     -3.50   -0.1810    0.0267
     -3.40   -0.1730    0.0270
     -3.30   -0.1649    0.0273
     -3.20   -0.1565    0.0275
     -3.10   -0.1463    0.0278
     -3.00   -0.1366    0.0279
     -2.90   -0.1284    0.0279
     -2.80   -0.1199    0.0278
     -2.70   -0.1094    0.0278
     -2.60   -0.1034    0.0276
     -2.50   -0.0917    0.0276
     -2.40   -0.0842    0.0274
     -2.30   -0.0747    0.0273
     -2.20   -0.0654    0.0271
     -2.10   -0.0586    0.0269
     -2.00   -0.0480    0.0268
     -1.90   -0.0404    0.0266
     -1.80   -0.0320    0.0264
     -1.70   -0.0221    0.0263
     -1.60   -0.0150    0.0261
     -1.50   -0.0058    0.0259
     -1.40    0.0038    0.0258
     -1.30    0.0108    0.0256
     -1.20    0.0203    0.0255
     -1.10    0.0298    0.0253
     -1.00    0.0367    0.0251
     -0.90    0.0466    0.0250
     -0.80    0.0559    0.0249
     -0.70    0.0629    0.0247
     -0.60    0.0729    0.0246
     -0.50    0.0822    0.0245
     -0.40    0.0895    0.0243
     -0.30    0.0995    0.0242
     -0.20    0.1088    0.0240
     -0.10    0.1163    0.0239
      0.00    0.1262    0.0238
      0.10    0.1356    0.0237
      0.20    0.1432    0.0235
      0.30    0.1532    0.0234
      0.40    0.1625    0.0233
      0.50    0.1703    0.0232
      0.60    0.1805    0.0231
      0.70    0.1896    0.0230
      0.80    0.1980    0.0229
      0.90    0.2081    0.0228
      1.00    0.2165    0.0227
      1.10    0.2262    0.0226
      1.20    0.2358    0.0225
      1.30    0.2444    0.0224
      1.40    0.2549    0.0224
      1.50    0.2629    0.0223
      1.60    0.2743    0.0222
      1.70    0.2832    0.0221
      1.80    0.2947    0.0221
      1.90    0.3037    0.0220
      2.00    0.3157    0.0219
      2.10    0.3249    0.0219
      2.20    0.3384    0.0218
      2.30    0.3495    0.0218
      2.40    0.3634    0.0217
      2.50    0.3772    0.0217
      2.60    0.3905    0.0217
      2.70    0.4078    0.0217
      2.80    0.4236    0.0217
      2.90    0.4413    0.0217
      3.00    0.4600    0.0218
      3.10    0.4782    0.0218
      3.20    0.4989    0.0219
      3.30    0.5192    0.0219
      3.40    0.5394    0.0220
      3.50    0.5602    0.0220
      3.60    0.5802    0.0221
      3.70    0.5998    0.0221
      3.80    0.6193    0.0222
      3.90    0.6291    0.0222
      4.00    0.6278    0.0222
      4.10    0.6257    0.0222
      4.20    0.6232    0.0222
      4.30    0.6205    0.0222
      4.40    0.6203    0.0222
      4.50    0.6239    0.0222
      4.60    0.6302    0.0223
      4.70    0.6381    0.0224
      4.80    0.6470    0.0225
      4.90    0.6564    0.0226
      5.00    0.6663    0.0228
      5.10    0.6763    0.0229
      5.20    0.6864    0.0230
      5.30    0.6964    0.0232
      5.40    0.7063    0.0233
      5.50    0.7162    0.0235
      5.60    0.7259    0.0237
      5.70    0.7356    0.0239
      5.80    0.7452    0.0240
      5.90    0.7547    0.0242
      6.00    0.7641    0.0244
      6.10    0.7733    0.0246
      6.20    0.7825    0.0248
      6.30    0.7915    0.0250
      6.40    0.8003    0.0253
      6.50    0.8091    0.0255
      6.60    0.8177    0.0257
      6.70    0.8262    0.0260
      6.80    0.8346    0.0262
      6.90    0.8428    0.0265
      7.00    0.8509    0.0267
      7.10    0.8589    0.0270
      7.20    0.8667    0.0273
      7.30    0.8745    0.0275
      7.40    0.8821    0.0278
      7.50    0.8896    0.0281
      7.60    0.8969    0.0285
      7.70    0.9042    0.0288
      7.80    0.9114    0.0291
      7.90    0.9184    0.0294
      8.00    0.9253    0.0298
      8.10    0.9321    0.0301
      8.20    0.9388    0.0305
      8.30    0.9453    0.0309
      8.40    0.9518    0.0313
      8.50    0.9581    0.0317
      8.60    0.9642    0.0321
      8.70    0.9701    0.0326
      8.80    0.9759    0.0330
      8.90    0.9814    0.0335
      9.00    0.9866    0.0340
      9.10    0.9915    0.0345
      9.20    0.9959    0.0351
      9.30    0.9998    0.0358
      9.40    1.0029    0.0365
      9.50    1.0056    0.0372
      9.60    1.0078    0.0380
      9.70    1.0102    0.0388
      9.80    1.0135    0.0395
      9.90    1.0195    0.0401
     10.00    1.0318    0.0403
     10.10    1.0650    0.0399
     10.20    1.1160    0.0402
     10.30    1.1285    0.0409
     10.40    1.1502    0.0417
     10.50    1.1601    0.0426
     10.60    1.1773    0.0434
     10.70    1.1964    0.0445
     10.80    1.2045    0.0455
     10.90    1.2166    0.0465
     11.00    1.2383    0.0476
     11.10    1.2513    0.0489
     11.20    1.2551    0.0500
     11.30    1.2598    0.0511
     11.40    1.2646    0.0523
     11.50    1.2694    0.0534
     11.60    1.2743    0.0546
     11.70    1.2799    0.0557
     11.80    1.2869    0.0570
     11.90    1.2981    0.0583
     12.00    1.3122    0.0600
     12.10    1.3106    0.0613
     12.20    1.3083    0.0626
     12.30    1.3056    0.0639
     12.40    1.3023    0.0652
     12.50    1.2987    0.0665
     12.60    1.2946    0.0679
     12.70    1.2903    0.0693
     12.80    1.2857    0.0707
     12.90    1.2809    0.0722
     13.00    1.2761    0.0737
     13.10    1.2713    0.0752
     13.20    1.2668    0.0768
     13.30    1.2146    0.0793
     13.40    1.1990    0.0815
     13.50    1.1850    0.0838
     13.60    1.1720    0.0862
     13.70    1.1596    0.0886
     13.80    1.1477    0.0911
     13.90    1.1365    0.0936
     14.00    1.1258    0.0962
     14.10    1.1160    0.0988
     14.20    1.1071    0.1014
     14.30    1.0996    0.1040
     14.40    1.0939    0.1064
     14.50    1.0903    0.1088
     14.70    0.9086    0.1531
     14.80    0.9058    0.1561
     14.90    0.9036    0.1590
     15.00    0.9021    0.1617
     15.10    0.9010    0.1643
     15.20    0.9003    0.1667
     15.30    0.9000    0.1691
     15.40    0.8999    0.1715
     15.50    0.9001    0.1737
     15.60    0.9006    0.1759
     15.70    0.9012    0.1780
     15.80    0.9020    0.1801
     15.90    0.9030    0.1821
     16.00    0.9041    0.1841
     16.10    0.9053    0.1860
     16.20    0.9067    0.1879
     16.30    0.9082    0.1898
     16.40    0.9098    0.1916
     16.50    0.9114    0.1935
     16.60    0.9132    0.1952
     16.70    0.9150    0.1970
     16.80    0.9169    0.1987
     16.90    0.9188    0.2004
     17.00    0.9207    0.2020
     17.10    0.9227    0.2037
     17.20    0.9248    0.2053
     17.30    0.9270    0.2069
     17.40    0.9292    0.2084
     17.50    0.9314    0.2100
     17.60    0.9338    0.2115
     17.70    0.9362    0.2131
     17.80    0.9386    0.2146
     17.90    0.9411    0.2161
     18.00    0.9436    0.2176
     18.10    0.9462    0.2191
     18.20    0.9489    0.2205
     18.30    0.9515    0.2220
     18.40    0.9542    0.2234
     18.50    0.9569    0.2249
     18.60    0.9597    0.2263
     18.70    0.9625    0.2277
     18.80    0.9653    0.2291
     18.90    0.9682    0.2305
     19.00    0.9710    0.2319
     19.10    0.9739    0.2333
     19.20    0.9768    0.2347
     19.30    0.9798    0.2361
     19.40    0.9827    0.2374
     19.50    0.9857    0.2388
     19.60    0.9887    0.2401
     19.70    0.9921    0.2415
     19.80    0.9997    0.2433
     19.90    1.0050    0.2452
     20.00    1.0010    0.2454
