AeroDyn airfoil file Created with QBlade v0.963 64bit on 16.02.2021 at 08:50:34 Compatible with AeroDyn v13.0.
Polar "T1_Re0.130_M0.00_N9.0" on Foil "SD8040 (10%)" :: generated by QBlade
1              Number of airfoil tables in this file
0              Table ID parameter
12.10          Stall angle (deg)
0              No longer used, enter zero
0              No longer used, enter zero
0              No longer used, enter zero
-2.51          Angle of attack for zero Cn for linear Cn curve (deg)
6.16418        Cn slope for zero lift for linear Cn curve (1/rad)
-0.3314        Cn at stall value for positive angle of attack for linear Cn curve
-0.3420        Cn at stall value for negative angle of attack for linear Cn curve
-0.80          Angle of attack for minimum CD (deg)
0.0136         Minimum CD value
     -8.00   -0.3497    0.0899
     -7.90   -0.3474    0.0886
     -7.80   -0.3453    0.0874
     -7.70   -0.3435    0.0861
     -7.60   -0.3419    0.0849
     -7.50   -0.3407    0.0836
     -7.40   -0.3398    0.0823
     -7.30   -0.3392    0.0809
     -7.20   -0.3392    0.0796
     -7.10   -0.3402    0.0783
     -7.00   -0.3403    0.0768
     -6.90   -0.3393    0.0752
     -6.80   -0.3378    0.0735
     -6.70   -0.3359    0.0718
     -6.60   -0.3297    0.0722
     -6.50   -0.3254    0.0716
     -6.40   -0.3212    0.0705
     -6.30   -0.3168    0.0693
     -6.20   -0.3122    0.0679
     -6.10   -0.3268    0.0594
     -6.00   -0.3217    0.0576
     -5.90   -0.3152    0.0563
     -5.80   -0.3087    0.0551
     -5.70   -0.3022    0.0540
     -5.60   -0.2957    0.0528
     -5.50   -0.2891    0.0516
     -5.40   -0.2823    0.0504
     -5.30   -0.2753    0.0491
     -5.20   -0.2681    0.0477
     -5.10   -0.2607    0.0463
     -5.00   -0.2531    0.0447
     -4.90   -0.2452    0.0430
     -4.70   -0.2185    0.0321
     -4.60   -0.2103    0.0303
     -4.50   -0.2013    0.0289
     -4.40   -0.1917    0.0277
     -4.30   -0.1819    0.0266
     -4.20   -0.1718    0.0257
     -4.10   -0.1615    0.0248
     -4.00   -0.1510    0.0240
     -3.90   -0.1405    0.0232
     -3.80   -0.1299    0.0225
     -3.70   -0.1193    0.0219
     -3.60   -0.1087    0.0214
     -3.50   -0.0981    0.0209
     -3.40   -0.0874    0.0205
     -3.30   -0.0783    0.0193
     -3.20   -0.0687    0.0186
     -3.10   -0.0584    0.0183
     -3.00   -0.0479    0.0181
     -2.90   -0.0374    0.0178
     -2.80   -0.0273    0.0172
     -2.70   -0.0180    0.0165
     -2.60   -0.0083    0.0161
     -2.50    0.0010    0.0157
     -2.40    0.0093    0.0152
     -2.30    0.0170    0.0147
     -2.20    0.0239    0.0144
     -2.10    0.0301    0.0141
     -2.00    0.0368    0.0139
     -1.90    0.0440    0.0138
     -1.80    0.0520    0.0137
     -1.70    0.0604    0.0137
     -1.60    0.0691    0.0136
     -1.50    0.0794    0.0136
     -1.40    0.0942    0.0136
     -1.30    0.1138    0.0136
     -1.20    0.1382    0.0136
     -1.10    0.1656    0.0136
     -1.00    0.1956    0.0136
     -0.90    0.2110    0.0136
     -0.80    0.2186    0.0136
     -0.70    0.2264    0.0136
     -0.60    0.2346    0.0136
     -0.50    0.2430    0.0136
     -0.40    0.2516    0.0136
     -0.30    0.2604    0.0136
     -0.20    0.2694    0.0137
     -0.10    0.2786    0.0137
      0.00    0.2880    0.0137
      0.10    0.2975    0.0138
      0.20    0.3072    0.0138
      0.30    0.3169    0.0138
      0.40    0.3268    0.0139
      0.50    0.3367    0.0139
      0.60    0.3467    0.0140
      0.70    0.3568    0.0140
      0.80    0.3669    0.0141
      0.90    0.3770    0.0141
      1.00    0.3872    0.0142
      1.10    0.3974    0.0142
      1.20    0.4077    0.0143
      1.30    0.4180    0.0143
      1.40    0.4283    0.0144
      1.50    0.4386    0.0144
      1.60    0.4489    0.0145
      1.70    0.4593    0.0146
      1.80    0.4696    0.0146
      1.90    0.4800    0.0147
      2.00    0.4904    0.0147
      2.10    0.5008    0.0148
      2.20    0.5111    0.0149
      2.30    0.5215    0.0149
      2.40    0.5319    0.0150
      2.50    0.5423    0.0151
      2.60    0.5527    0.0151
      2.70    0.5631    0.0152
      2.80    0.5735    0.0153
      2.90    0.5839    0.0154
      3.00    0.5942    0.0154
      3.10    0.6046    0.0155
      3.20    0.6150    0.0156
      3.30    0.6253    0.0157
      3.40    0.6357    0.0157
      3.50    0.6460    0.0158
      3.60    0.6563    0.0159
      3.70    0.6666    0.0160
      3.80    0.6769    0.0161
      3.90    0.6872    0.0162
      4.00    0.6975    0.0162
      4.10    0.7078    0.0163
      4.20    0.7180    0.0164
      4.30    0.7283    0.0165
      4.40    0.7385    0.0166
      4.50    0.7487    0.0167
      4.60    0.7589    0.0168
      4.70    0.7690    0.0169
      4.80    0.7792    0.0170
      4.90    0.7893    0.0171
      5.00    0.7994    0.0172
      5.10    0.8095    0.0173
      5.20    0.8196    0.0174
      5.30    0.8296    0.0175
      5.40    0.8397    0.0176
      5.50    0.8497    0.0177
      5.60    0.8596    0.0179
      5.70    0.8696    0.0180
      5.80    0.8795    0.0181
      5.90    0.8895    0.0182
      6.00    0.8993    0.0183
      6.10    0.9092    0.0185
      6.20    0.9190    0.0186
      6.30    0.9287    0.0187
      6.40    0.9385    0.0188
      6.50    0.9482    0.0190
      6.60    0.9579    0.0191
      6.70    0.9675    0.0192
      6.80    0.9771    0.0194
      6.90    0.9867    0.0195
      7.00    0.9962    0.0197
      7.10    1.0057    0.0198
      7.20    1.0152    0.0200
      7.30    1.0246    0.0201
      7.40    1.0340    0.0203
      7.50    1.0432    0.0205
      7.60    1.0524    0.0206
      7.70    1.0615    0.0208
      7.80    1.0706    0.0210
      7.90    1.0797    0.0212
      8.00    1.0886    0.0213
      8.10    1.0975    0.0215
      8.20    1.1064    0.0217
      8.30    1.1152    0.0219
      8.40    1.1238    0.0221
      8.50    1.1324    0.0223
      8.60    1.1409    0.0225
      8.70    1.1493    0.0228
      8.80    1.1575    0.0230
      8.90    1.1656    0.0233
      9.00    1.1735    0.0235
      9.10    1.1812    0.0238
      9.20    1.1887    0.0241
      9.30    1.1960    0.0244
      9.40    1.2029    0.0248
      9.50    1.2095    0.0253
      9.60    1.2156    0.0258
      9.70    1.2215    0.0264
      9.80    1.2277    0.0273
      9.90    1.2352    0.0285
     10.00    1.2437    0.0299
     10.10    1.2489    0.0303
     10.20    1.2536    0.0306
     10.30    1.2575    0.0310
     10.40    1.2610    0.0317
     10.50    1.2659    0.0337
     10.60    1.2706    0.0339
     10.70    1.2748    0.0342
     10.80    1.2785    0.0346
     10.90    1.2824    0.0352
     11.00    1.2862    0.0359
     11.10    1.2900    0.0365
     11.20    1.2935    0.0371
     11.30    1.2974    0.0377
     11.40    1.3004    0.0384
     11.50    1.3032    0.0390
     11.60    1.3058    0.0397
     11.70    1.3082    0.0404
     11.80    1.3103    0.0412
     11.90    1.3120    0.0420
     12.00    1.3133    0.0430
     12.10    1.3141    0.0442
     12.20    1.3135    0.0457
     12.30    1.3107    0.0475
     12.40    1.3058    0.0495
     12.50    1.2987    0.0516
     12.60    1.2901    0.0537
     12.70    1.2860    0.0550
     12.80    1.2831    0.0560
     12.90    1.2797    0.0571
     13.00    1.2759    0.0584
     13.10    1.2714    0.0597
     13.20    1.2665    0.0612
     13.30    1.2608    0.0627
     13.40    1.2545    0.0644
     13.50    1.2474    0.0662
     13.60    1.2395    0.0682
     13.70    1.2313    0.0703
     13.80    1.2221    0.0726
     13.90    1.2126    0.0751
     14.00    1.2019    0.0778
     14.10    1.1907    0.0808
     14.20    1.1780    0.0841
     14.30    1.1645    0.0876
     14.40    1.1485    0.0918
     14.50    1.1303    0.0965
     14.60    1.1070    0.1026
     14.70    0.9480    0.1484
     14.80    0.9409    0.1524
     14.90    0.9359    0.1559
     15.00    0.9322    0.1591
     15.10    0.9293    0.1621
     15.20    0.9269    0.1650
     15.30    0.9250    0.1679
     15.40    0.9230    0.1708
     15.50    0.9210    0.1738
     15.60    0.9189    0.1768
     15.70    0.9169    0.1800
     15.80    0.9150    0.1832
     15.90    0.9141    0.1863
     16.00    0.9150    0.1891
     16.40    0.9357    0.1975
     16.50    0.9381    0.1998
     16.60    0.9410    0.2021
     16.70    0.9425    0.2049
     16.80    0.9328    0.2146
     16.90    0.9340    0.2170
     17.00    0.9353    0.2194
     17.10    0.9365    0.2218
     17.20    0.9378    0.2241
     17.30    0.9390    0.2264
     17.40    0.9403    0.2287
     17.50    0.9415    0.2309
     17.60    0.9427    0.2331
     17.70    0.9439    0.2353
     17.80    0.9451    0.2374
     17.90    0.9463    0.2395
     18.00    0.9474    0.2416
     18.10    0.9485    0.2436
     18.20    0.9496    0.2455
     18.30    0.9506    0.2474
     18.40    0.9516    0.2492
     18.50    0.9524    0.2509
     18.60    0.9523    0.2523
     18.70    0.9513    0.2535
     18.80    0.9484    0.2543
     18.90    0.9449    0.2548
     19.00    0.9431    0.2559
     19.10    0.9431    0.2577
     19.20    0.9438    0.2596
     19.30    0.9447    0.2616
     19.40    0.9458    0.2636
     19.50    0.9468    0.2656
     19.60    0.9480    0.2676
     19.70    0.9491    0.2695
     19.80    0.9503    0.2715
     19.90    0.9514    0.2735
     20.00    0.9525    0.2755
