AeroDyn airfoil file Created with QBlade v0.963 64bit on 03.02.2021 at 08:58:06 Compatible with AeroDyn v13.0.
Polar "T1_Re0.010_M0.00_N9.0" on Foil "SG6043" :: generated by QBlade
1              Number of airfoil tables in this file
0              Table ID parameter
19.90          Stall angle (deg)
0              No longer used, enter zero
0              No longer used, enter zero
0              No longer used, enter zero
-9.10          Angle of attack for zero Cn for linear Cn curve (deg)
-0.17049       Cn slope for zero lift for linear Cn curve (1/rad)
0.0700         Cn at stall value for positive angle of attack for linear Cn curve
0.0246         Cn at stall value for negative angle of attack for linear Cn curve
-0.20          Angle of attack for minimum CD (deg)
0.0431         Minimum CD value
     -8.00    0.0377    0.0915
     -7.90    0.0411    0.0906
     -7.80    0.0445    0.0897
     -7.70    0.0479    0.0888
     -7.60    0.0512    0.0879
     -7.50    0.0545    0.0871
     -7.40    0.0578    0.0862
     -7.30    0.0610    0.0854
     -7.20    0.0642    0.0845
     -7.10    0.0674    0.0837
     -7.00    0.0706    0.0829
     -6.90    0.0737    0.0821
     -6.80    0.0768    0.0812
     -6.70    0.0799    0.0804
     -6.60    0.0753    0.0804
     -6.50    0.0586    0.0817
     -6.40    0.0440    0.0827
     -6.30    0.0304    0.0836
     -6.20    0.0183    0.0843
     -6.10    0.0077    0.0848
     -6.00   -0.0019    0.0852
     -5.90   -0.0109    0.0855
     -5.80   -0.0198    0.0857
     -5.70   -0.0299    0.0861
     -5.60   -0.0368    0.0861
     -5.50   -0.0445    0.0862
     -5.40   -0.0527    0.0863
     -5.30   -0.0594    0.0863
     -5.20   -0.0663    0.0862
     -5.10   -0.0758    0.0863
     -5.00   -0.0807    0.0860
     -4.90   -0.0869    0.0857
     -4.80   -0.0939    0.0856
     -4.70   -0.1012    0.0854
     -4.60   -0.1084    0.0852
     -4.50   -0.1154    0.0849
     -4.40   -0.1221    0.0846
     -4.30   -0.1290    0.0843
     -4.20   -0.1365    0.0840
     -4.10   -0.1453    0.0838
     -4.00   -0.1558    0.0837
     -3.90   -0.1591    0.0830
     -3.80   -0.1634    0.0824
     -3.70   -0.1699    0.0820
     -3.60   -0.1769    0.0816
     -3.50   -0.1779    0.0808
     -3.40   -0.1830    0.0802
     -3.30   -0.1865    0.0796
     -3.20   -0.1880    0.0788
     -3.10   -0.1927    0.0782
     -3.00   -0.1914    0.0772
     -2.90   -0.1941    0.0765
     -2.80   -0.1925    0.0755
     -2.70   -0.1917    0.0746
     -2.60   -0.1914    0.0738
     -2.50   -0.1875    0.0727
     -2.40   -0.1839    0.0716
     -2.30   -0.1798    0.0706
     -2.20   -0.1748    0.0695
     -2.10   -0.1686    0.0684
     -2.00   -0.1613    0.0672
     -1.90   -0.1532    0.0660
     -1.80   -0.1444    0.0649
     -1.70   -0.1345    0.0637
     -1.60   -0.1248    0.0625
     -1.50   -0.1139    0.0613
     -1.40   -0.1023    0.0601
     -1.30   -0.0911    0.0589
     -1.20   -0.0797    0.0577
     -1.10   -0.0690    0.0566
     -1.00   -0.0574    0.0554
     -0.90   -0.0473    0.0543
     -0.80   -0.0370    0.0532
     -0.70   -0.0271    0.0521
     -0.60   -0.0180    0.0509
     -0.50   -0.0090    0.0497
     -0.40    0.0010    0.0485
     -0.20    0.2340    0.0431
     -0.10    0.2480    0.0432
      0.00    0.2604    0.0434
      0.10    0.2720    0.0436
      0.20    0.2830    0.0437
      0.30    0.2938    0.0439
      0.40    0.3042    0.0441
      0.50    0.3145    0.0443
      0.60    0.3246    0.0445
      0.70    0.3346    0.0447
      0.80    0.3445    0.0449
      0.90    0.3542    0.0451
      1.00    0.3638    0.0453
      1.10    0.3734    0.0455
      1.20    0.3828    0.0457
      1.30    0.3922    0.0459
      1.40    0.4015    0.0462
      1.50    0.4107    0.0464
      1.60    0.4199    0.0467
      1.70    0.4290    0.0469
      1.80    0.4380    0.0472
      1.90    0.4469    0.0474
      2.00    0.4558    0.0477
      2.10    0.4646    0.0479
      2.20    0.4734    0.0482
      2.30    0.4821    0.0485
      2.40    0.4907    0.0488
      2.50    0.4993    0.0491
      2.60    0.5078    0.0494
      2.70    0.5162    0.0497
      2.80    0.5246    0.0500
      2.90    0.5329    0.0503
      3.00    0.5412    0.0506
      3.10    0.5494    0.0509
      3.20    0.5576    0.0513
      3.30    0.5657    0.0516
      3.40    0.5737    0.0519
      3.50    0.5817    0.0523
      3.60    0.5896    0.0526
      3.70    0.5975    0.0530
      3.80    0.6053    0.0534
      3.90    0.6130    0.0537
      4.00    0.6207    0.0541
      4.10    0.6283    0.0545
      4.20    0.6359    0.0549
      4.30    0.6434    0.0553
      4.40    0.6508    0.0557
      4.50    0.6582    0.0561
      4.60    0.6656    0.0565
      4.70    0.6728    0.0570
      4.80    0.6800    0.0574
      4.90    0.6872    0.0578
      5.00    0.6942    0.0583
      5.10    0.7013    0.0588
      5.20    0.7082    0.0592
      5.30    0.7151    0.0597
      5.40    0.7219    0.0602
      5.50    0.7287    0.0607
      5.60    0.7353    0.0612
      5.70    0.7420    0.0617
      5.80    0.7485    0.0622
      5.90    0.7550    0.0627
      6.00    0.7614    0.0633
      6.10    0.7678    0.0638
      6.20    0.7740    0.0644
      6.30    0.7803    0.0649
      6.40    0.7864    0.0655
      6.50    0.7925    0.0661
      6.60    0.7985    0.0667
      6.70    0.8044    0.0673
      6.80    0.8102    0.0679
      6.90    0.8160    0.0685
      7.00    0.8217    0.0692
      7.10    0.8273    0.0698
      7.20    0.8329    0.0705
      7.30    0.8383    0.0712
      7.40    0.8437    0.0718
      7.50    0.8491    0.0725
      7.60    0.8543    0.0733
      7.70    0.8595    0.0740
      7.80    0.8645    0.0747
      7.90    0.8695    0.0755
      8.00    0.8745    0.0762
      8.10    0.8793    0.0770
      8.20    0.8840    0.0778
      8.30    0.8887    0.0786
      8.40    0.8933    0.0795
      8.50    0.8978    0.0803
      8.60    0.9022    0.0812
      8.70    0.9066    0.0821
      8.80    0.9108    0.0830
      8.90    0.9150    0.0839
      9.00    0.9191    0.0848
      9.10    0.9231    0.0857
      9.20    0.9271    0.0867
      9.30    0.9309    0.0877
      9.40    0.9346    0.0887
      9.50    0.9383    0.0897
      9.60    0.9419    0.0907
      9.70    0.9454    0.0918
      9.80    0.9488    0.0928
      9.90    0.9521    0.0939
     10.00    0.9554    0.0951
     10.10    0.9586    0.0962
     10.20    0.9617    0.0973
     10.30    0.9647    0.0985
     10.40    0.9676    0.0997
     10.50    0.9704    0.1009
     10.60    0.9732    0.1022
     10.70    0.9758    0.1034
     10.80    0.9784    0.1047
     10.90    0.9809    0.1060
     11.00    0.9834    0.1074
     11.10    0.9857    0.1087
     11.20    0.9881    0.1101
     11.30    0.9903    0.1115
     11.40    0.9925    0.1129
     11.50    0.9947    0.1143
     11.60    0.9970    0.1157
     11.70    0.9992    0.1171
     11.80    1.0015    0.1185
     11.90    1.0038    0.1199
     12.00    1.0061    0.1213
     12.10    1.0085    0.1227
     12.20    1.0109    0.1241
     12.30    1.0134    0.1255
     12.40    1.0159    0.1269
     12.50    1.0184    0.1283
     12.60    1.0210    0.1297
     12.70    1.0236    0.1310
     12.80    1.0263    0.1324
     12.90    1.0290    0.1338
     13.00    1.0318    0.1351
     13.10    1.0346    0.1364
     13.20    1.0374    0.1378
     13.30    1.0402    0.1391
     13.40    1.0430    0.1404
     13.50    1.0459    0.1417
     13.60    1.0487    0.1431
     13.70    1.0516    0.1444
     13.80    1.0544    0.1457
     13.90    1.0573    0.1470
     14.00    1.0601    0.1484
     14.10    1.0630    0.1497
     14.20    1.0659    0.1510
     14.30    1.0687    0.1524
     14.40    1.0716    0.1537
     14.50    1.0745    0.1551
     14.60    1.0774    0.1565
     14.70    1.0803    0.1579
     14.80    1.0832    0.1592
     14.90    1.0861    0.1606
     15.00    1.0889    0.1621
     15.10    1.0918    0.1635
     15.20    1.0947    0.1649
     15.30    1.0975    0.1664
     15.40    1.1004    0.1678
     15.50    1.1032    0.1693
     15.60    1.1061    0.1708
     15.70    1.1089    0.1722
     15.80    1.1118    0.1737
     15.90    1.1146    0.1753
     16.00    1.1174    0.1768
     16.10    1.1202    0.1783
     16.20    1.1231    0.1798
     16.30    1.1259    0.1814
     16.40    1.1287    0.1829
     16.50    1.1315    0.1845
     16.60    1.1344    0.1861
     16.70    1.1372    0.1877
     16.80    1.1400    0.1892
     16.90    1.1428    0.1908
     17.00    1.1457    0.1924
     17.10    1.1485    0.1940
     17.20    1.1514    0.1956
     17.30    1.1542    0.1972
     17.40    1.1570    0.1989
     17.50    1.1599    0.2005
     17.60    1.1627    0.2021
     17.70    1.1655    0.2038
     17.80    1.1683    0.2054
     17.90    1.1711    0.2070
     18.00    1.1739    0.2087
     18.10    1.1767    0.2103
     18.20    1.1795    0.2120
     18.30    1.1822    0.2136
     18.40    1.1850    0.2152
     18.50    1.1878    0.2169
     18.60    1.1905    0.2185
     18.70    1.1933    0.2202
     18.80    1.1960    0.2218
     18.90    1.1988    0.2234
     19.00    1.2015    0.2250
     19.10    1.2042    0.2266
     19.20    1.2069    0.2282
     19.30    1.2096    0.2298
     19.40    1.2122    0.2314
     19.50    1.2149    0.2330
     19.60    1.2175    0.2345
     19.70    1.2201    0.2361
     19.80    1.2226    0.2376
     19.90    1.2252    0.2391
