AeroDyn airfoil file Created with QBlade v0.963 64bit on 03.02.2021 at 08:58:06 Compatible with AeroDyn v13.0.
Polar "T1_Re0.005_M0.00_N9.0" on Foil "SG6043" :: generated by QBlade
1              Number of airfoil tables in this file
0              Table ID parameter
20.00          Stall angle (deg)
0              No longer used, enter zero
0              No longer used, enter zero
0              No longer used, enter zero
0.39           Angle of attack for zero Cn for linear Cn curve (deg)
4.31590        Cn slope for zero lift for linear Cn curve (1/rad)
-0.0421        Cn at stall value for positive angle of attack for linear Cn curve
-0.0754        Cn at stall value for negative angle of attack for linear Cn curve
0.60           Angle of attack for minimum CD (deg)
0.0508         Minimum CD value
     -8.00   -0.0615    0.1041
     -7.90   -0.0600    0.1035
     -7.80   -0.0587    0.1028
     -7.70   -0.0573    0.1022
     -7.60   -0.0560    0.1015
     -7.50   -0.0548    0.1009
     -7.40   -0.0535    0.1003
     -7.30   -0.0523    0.0996
     -7.20   -0.0512    0.0990
     -7.10   -0.0501    0.0984
     -7.00   -0.0490    0.0977
     -6.90   -0.0479    0.0971
     -6.80   -0.0469    0.0965
     -6.70   -0.0459    0.0959
     -6.60   -0.0450    0.0952
     -6.50   -0.0441    0.0946
     -6.40   -0.0432    0.0940
     -6.30   -0.0424    0.0934
     -6.20   -0.0416    0.0928
     -6.10   -0.0409    0.0922
     -6.00   -0.0402    0.0916
     -5.90   -0.0395    0.0910
     -5.80   -0.0389    0.0904
     -5.70   -0.0383    0.0898
     -5.60   -0.0377    0.0892
     -5.50   -0.0372    0.0886
     -5.40   -0.0367    0.0880
     -5.30   -0.0363    0.0874
     -5.20   -0.0359    0.0869
     -5.10   -0.0355    0.0863
     -5.00   -0.0352    0.0857
     -4.90   -0.0350    0.0851
     -4.80   -0.0348    0.0846
     -4.70   -0.0346    0.0840
     -4.60   -0.0345    0.0834
     -4.50   -0.0344    0.0829
     -4.40   -0.0344    0.0823
     -4.30   -0.0345    0.0817
     -4.20   -0.0346    0.0812
     -4.10   -0.0347    0.0806
     -4.00   -0.0349    0.0801
     -3.90   -0.0352    0.0795
     -3.80   -0.0355    0.0789
     -3.70   -0.0359    0.0784
     -3.60   -0.0363    0.0778
     -3.50   -0.0369    0.0773
     -3.40   -0.0375    0.0768
     -3.30   -0.0381    0.0762
     -3.20   -0.0389    0.0757
     -3.10   -0.0397    0.0751
     -3.00   -0.0406    0.0746
     -2.90   -0.0416    0.0740
     -2.80   -0.0427    0.0735
     -2.70   -0.0439    0.0729
     -2.60   -0.0451    0.0724
     -2.50   -0.0465    0.0719
     -2.40   -0.0480    0.0713
     -2.30   -0.0496    0.0708
     -2.20   -0.0513    0.0702
     -2.10   -0.0531    0.0696
     -2.00   -0.0551    0.0691
     -1.90   -0.0571    0.0685
     -1.80   -0.0593    0.0679
     -1.70   -0.0617    0.0673
     -1.60   -0.0641    0.0668
     -1.50   -0.0667    0.0662
     -1.40   -0.0695    0.0655
     -1.30   -0.0724    0.0649
     -1.20   -0.0755    0.0643
     -1.10   -0.0787    0.0636
     -1.00   -0.0821    0.0629
     -0.90   -0.0856    0.0622
     -0.80   -0.0893    0.0615
     -0.70   -0.0931    0.0607
     -0.60   -0.0970    0.0599
     -0.50   -0.1010    0.0590
     -0.40   -0.1050    0.0581
     -0.30   -0.1085    0.0572
     -0.20   -0.1109    0.0561
     -0.10   -0.1111    0.0551
      0.00   -0.1074    0.0540
      0.10   -0.0964    0.0528
      0.20   -0.0695    0.0517
      0.30   -0.0249    0.0510
      0.40    0.0023    0.0509
      0.50    0.0197    0.0508
      0.60    0.0332    0.0508
      0.70    0.0449    0.0508
      0.80    0.0555    0.0508
      0.90    0.0654    0.0509
      1.00    0.0747    0.0509
      1.10    0.0837    0.0509
      1.20    0.0924    0.0509
      1.30    0.1043    0.0526
      1.40    0.1173    0.0542
      1.50    0.1306    0.0556
      1.60    0.1440    0.0568
      1.70    0.1571    0.0579
      1.80    0.1700    0.0588
      1.90    0.1826    0.0596
      2.00    0.1949    0.0603
      2.10    0.2069    0.0610
      2.20    0.2186    0.0616
      2.30    0.2301    0.0622
      2.40    0.2414    0.0628
      2.50    0.2524    0.0633
      2.60    0.2632    0.0639
      2.70    0.2738    0.0644
      2.80    0.2842    0.0649
      2.90    0.2944    0.0654
      3.00    0.3045    0.0659
      3.10    0.3144    0.0664
      3.20    0.3242    0.0669
      3.30    0.3338    0.0674
      3.40    0.3433    0.0679
      3.50    0.3527    0.0684
      3.60    0.3619    0.0689
      3.70    0.3710    0.0694
      3.80    0.3800    0.0699
      3.90    0.3888    0.0704
      4.00    0.3976    0.0709
      4.10    0.4063    0.0714
      4.20    0.4148    0.0720
      4.30    0.4233    0.0725
      4.40    0.4316    0.0730
      4.50    0.4399    0.0735
      4.60    0.4481    0.0741
      4.70    0.4561    0.0746
      4.80    0.4641    0.0752
      4.90    0.4720    0.0757
      5.00    0.4798    0.0763
      5.10    0.4876    0.0768
      5.20    0.4952    0.0774
      5.30    0.5028    0.0780
      5.40    0.5103    0.0786
      5.50    0.5177    0.0792
      5.60    0.5251    0.0798
      5.70    0.5324    0.0804
      5.80    0.5396    0.0810
      5.90    0.5467    0.0816
      6.00    0.5538    0.0822
      6.10    0.5607    0.0829
      6.20    0.5677    0.0835
      6.30    0.5745    0.0842
      6.40    0.5813    0.0848
      6.50    0.5881    0.0855
      6.60    0.5947    0.0862
      6.70    0.6013    0.0869
      6.80    0.6079    0.0875
      6.90    0.6144    0.0882
      7.00    0.6208    0.0890
      7.10    0.6271    0.0897
      7.20    0.6334    0.0904
      7.30    0.6397    0.0911
      7.40    0.6459    0.0919
      7.50    0.6520    0.0926
      7.60    0.6581    0.0934
      7.70    0.6642    0.0941
      7.80    0.6701    0.0949
      7.90    0.6761    0.0957
      8.00    0.6820    0.0965
      8.10    0.6878    0.0973
      8.20    0.6936    0.0981
      8.30    0.6993    0.0989
      8.40    0.7050    0.0998
      8.50    0.7106    0.1006
      8.60    0.7162    0.1015
      8.70    0.7218    0.1023
      8.80    0.7273    0.1032
      8.90    0.7327    0.1041
      9.00    0.7382    0.1049
      9.10    0.7435    0.1058
      9.20    0.7489    0.1067
      9.30    0.7542    0.1076
      9.40    0.7594    0.1086
      9.50    0.7647    0.1095
      9.60    0.7699    0.1104
      9.70    0.7750    0.1114
      9.80    0.7801    0.1123
      9.90    0.7852    0.1133
     10.00    0.7903    0.1142
     10.10    0.7953    0.1152
     10.20    0.8003    0.1162
     10.30    0.8053    0.1172
     10.40    0.8102    0.1182
     10.50    0.8151    0.1192
     10.60    0.8200    0.1202
     10.70    0.8249    0.1212
     10.80    0.8298    0.1222
     10.90    0.8346    0.1232
     11.00    0.8394    0.1243
     11.10    0.8441    0.1253
     11.20    0.8489    0.1264
     11.30    0.8536    0.1274
     11.40    0.8583    0.1285
     11.50    0.8630    0.1295
     11.60    0.8677    0.1306
     11.70    0.8723    0.1316
     11.80    0.8769    0.1327
     11.90    0.8815    0.1338
     12.00    0.8861    0.1348
     12.10    0.8907    0.1359
     12.20    0.8952    0.1370
     12.30    0.8997    0.1381
     12.40    0.9042    0.1392
     12.50    0.9087    0.1402
     12.60    0.9131    0.1413
     12.70    0.9175    0.1424
     12.80    0.9220    0.1435
     12.90    0.9264    0.1446
     13.00    0.9308    0.1457
     13.10    0.9352    0.1468
     13.20    0.9396    0.1480
     13.30    0.9440    0.1491
     13.40    0.9483    0.1502
     13.50    0.9527    0.1513
     13.60    0.9571    0.1524
     13.70    0.9614    0.1535
     13.80    0.9657    0.1547
     13.90    0.9701    0.1558
     14.00    0.9744    0.1569
     14.10    0.9786    0.1580
     14.20    0.9829    0.1591
     14.30    0.9871    0.1602
     14.40    0.9913    0.1614
     14.50    0.9955    0.1625
     14.60    0.9996    0.1636
     14.70    1.0038    0.1648
     14.80    1.0079    0.1659
     14.90    1.0120    0.1670
     15.00    1.0161    0.1682
     15.10    1.0202    0.1694
     15.20    1.0243    0.1705
     15.30    1.0283    0.1717
     15.40    1.0324    0.1729
     15.50    1.0364    0.1741
     15.60    1.0404    0.1753
     15.70    1.0443    0.1765
     15.80    1.0483    0.1778
     15.90    1.0522    0.1790
     16.00    1.0562    0.1802
     16.10    1.0601    0.1815
     16.20    1.0639    0.1828
     16.30    1.0678    0.1840
     16.40    1.0717    0.1853
     16.50    1.0755    0.1866
     16.60    1.0793    0.1879
     16.70    1.0832    0.1892
     16.80    1.0870    0.1905
     16.90    1.0907    0.1918
     17.00    1.0945    0.1932
     17.10    1.0982    0.1945
     17.20    1.1020    0.1959
     17.30    1.1057    0.1972
     17.40    1.1094    0.1986
     17.50    1.1131    0.1999
     17.60    1.1168    0.2013
     17.70    1.1204    0.2027
     17.80    1.1241    0.2040
     17.90    1.1277    0.2054
     18.00    1.1313    0.2068
     18.10    1.1349    0.2082
     18.20    1.1385    0.2096
     18.30    1.1421    0.2110
     18.40    1.1457    0.2124
     18.50    1.1493    0.2138
     18.60    1.1528    0.2153
     18.70    1.1563    0.2167
     18.80    1.1599    0.2181
     18.90    1.1634    0.2195
     19.00    1.1669    0.2210
     19.10    1.1704    0.2224
     19.20    1.1739    0.2239
     19.30    1.1773    0.2253
     19.40    1.1808    0.2267
     19.50    1.1842    0.2282
     19.60    1.1876    0.2296
     19.70    1.1910    0.2311
     19.80    1.1944    0.2325
     19.90    1.1977    0.2340
     20.00    1.2010    0.2354
