AeroDyn airfoil file Created with QBlade v0.963 64bit on 05.02.2021 at 09:23:20 Compatible with AeroDyn v13.0.
Polar "T1_Re0.005_M0.00_N9.0" on Foil "NACA 64(2)-415" :: generated by QBlade
1              Number of airfoil tables in this file
0              Table ID parameter
20.00          Stall angle (deg)
0              No longer used, enter zero
0              No longer used, enter zero
0              No longer used, enter zero
2.52           Angle of attack for zero Cn for linear Cn curve (deg)
3.59822        Cn slope for zero lift for linear Cn curve (1/rad)
0.6028         Cn at stall value for positive angle of attack for linear Cn curve
-0.1136        Cn at stall value for negative angle of attack for linear Cn curve
0.70           Angle of attack for minimum CD (deg)
0.0595         Minimum CD value
     -8.00   -0.1073    0.0882
     -7.90   -0.1067    0.0873
     -7.80   -0.1062    0.0864
     -7.70   -0.1056    0.0856
     -7.60   -0.1052    0.0847
     -7.50   -0.1047    0.0839
     -7.40   -0.1043    0.0831
     -7.30   -0.1039    0.0823
     -7.20   -0.1035    0.0815
     -7.10   -0.1032    0.0807
     -7.00   -0.1028    0.0800
     -6.90   -0.1024    0.0793
     -6.80   -0.1020    0.0786
     -6.70   -0.1016    0.0780
     -6.60   -0.1012    0.0774
     -6.50   -0.1007    0.0768
     -6.40   -0.1003    0.0762
     -6.30   -0.0999    0.0756
     -6.20   -0.0995    0.0751
     -6.10   -0.0991    0.0746
     -6.00   -0.0988    0.0741
     -5.90   -0.0989    0.0737
     -5.80   -0.0991    0.0732
     -5.70   -0.0996    0.0729
     -5.60   -0.1004    0.0725
     -5.50   -0.1014    0.0722
     -5.40   -0.1025    0.0718
     -5.30   -0.1036    0.0715
     -5.20   -0.1047    0.0712
     -5.10   -0.1058    0.0710
     -5.00   -0.1067    0.0707
     -4.90   -0.1076    0.0704
     -4.80   -0.1083    0.0702
     -4.70   -0.1090    0.0699
     -4.60   -0.1096    0.0696
     -4.50   -0.1102    0.0694
     -4.40   -0.1107    0.0692
     -4.30   -0.1112    0.0689
     -4.20   -0.1116    0.0687
     -4.10   -0.1120    0.0685
     -4.00   -0.1124    0.0683
     -3.90   -0.1127    0.0681
     -3.80   -0.1130    0.0679
     -3.70   -0.1133    0.0677
     -3.60   -0.1135    0.0675
     -3.50   -0.1138    0.0673
     -3.40   -0.1140    0.0671
     -3.30   -0.1141    0.0669
     -3.20   -0.1143    0.0667
     -3.10   -0.1144    0.0665
     -3.00   -0.1145    0.0663
     -2.90   -0.1146    0.0662
     -2.80   -0.1147    0.0660
     -2.70   -0.1148    0.0658
     -2.60   -0.1148    0.0656
     -2.50   -0.1149    0.0655
     -2.40   -0.1149    0.0653
     -2.30   -0.1149    0.0651
     -2.20   -0.1148    0.0650
     -2.10   -0.1148    0.0648
     -2.00   -0.1148    0.0646
     -1.90   -0.1147    0.0644
     -1.80   -0.1146    0.0643
     -1.70   -0.1145    0.0641
     -1.60   -0.1144    0.0639
     -1.50   -0.1142    0.0638
     -1.40   -0.1141    0.0636
     -1.30   -0.1139    0.0634
     -1.20   -0.1137    0.0632
     -1.10   -0.1135    0.0631
     -1.00   -0.1133    0.0629
     -0.90   -0.1130    0.0627
     -0.80   -0.1127    0.0625
     -0.70   -0.1124    0.0623
     -0.60   -0.1120    0.0622
     -0.50   -0.1116    0.0620
     -0.40   -0.1112    0.0618
     -0.30   -0.1107    0.0616
     -0.20   -0.1102    0.0614
     -0.10   -0.1096    0.0612
      0.00   -0.1089    0.0610
      0.10   -0.1082    0.0608
      0.20   -0.1074    0.0606
      0.30   -0.1066    0.0604
      0.40   -0.1056    0.0602
      0.50   -0.1046    0.0599
      0.60   -0.1034    0.0597
      0.70   -0.1021    0.0595
      0.80   -0.1002    0.0595
      0.90   -0.0974    0.0598
      1.00   -0.0940    0.0601
      1.10   -0.0899    0.0604
      1.20   -0.0853    0.0606
      1.30   -0.0803    0.0609
      1.40   -0.0749    0.0612
      1.50   -0.0691    0.0614
      1.60   -0.0630    0.0617
      1.70   -0.0567    0.0619
      1.80   -0.0502    0.0622
      1.90   -0.0435    0.0624
      2.00   -0.0367    0.0627
      2.10   -0.0298    0.0629
      2.20   -0.0227    0.0632
      2.30   -0.0156    0.0634
      2.40   -0.0084    0.0637
      2.50   -0.0011    0.0640
      2.60    0.0062    0.0643
      2.70    0.0136    0.0645
      2.80    0.0209    0.0648
      2.90    0.0284    0.0651
      3.00    0.0358    0.0654
      3.10    0.0433    0.0657
      3.20    0.0507    0.0660
      3.30    0.0582    0.0663
      3.40    0.0657    0.0666
      3.50    0.0732    0.0670
      3.60    0.0806    0.0673
      3.70    0.0881    0.0676
      3.80    0.0956    0.0680
      3.90    0.1030    0.0683
      4.00    0.1105    0.0687
      4.10    0.1179    0.0690
      4.20    0.1254    0.0694
      4.30    0.1328    0.0698
      4.40    0.1402    0.0701
      4.50    0.1475    0.0705
      4.60    0.1549    0.0709
      4.70    0.1623    0.0713
      4.80    0.1696    0.0717
      4.90    0.1769    0.0721
      5.00    0.1842    0.0725
      5.10    0.1914    0.0730
      5.20    0.1987    0.0734
      5.30    0.2059    0.0738
      5.40    0.2131    0.0743
      5.50    0.2203    0.0747
      5.60    0.2274    0.0752
      5.70    0.2346    0.0757
      5.80    0.2417    0.0761
      5.90    0.2487    0.0766
      6.00    0.2558    0.0771
      6.10    0.2628    0.0776
      6.20    0.2698    0.0781
      6.30    0.2768    0.0786
      6.40    0.2837    0.0791
      6.50    0.2907    0.0797
      6.60    0.2976    0.0802
      6.70    0.3044    0.0807
      6.80    0.3113    0.0813
      6.90    0.3181    0.0818
      7.00    0.3249    0.0824
      7.10    0.3316    0.0830
      7.20    0.3383    0.0836
      7.30    0.3450    0.0841
      7.40    0.3517    0.0847
      7.50    0.3583    0.0853
      7.60    0.3649    0.0860
      7.70    0.3715    0.0866
      7.80    0.3780    0.0872
      7.90    0.3845    0.0879
      8.00    0.3910    0.0885
      8.10    0.3975    0.0892
      8.20    0.4039    0.0898
      8.30    0.4103    0.0905
      8.40    0.4166    0.0912
      8.50    0.4229    0.0919
      8.60    0.4292    0.0926
      8.70    0.4355    0.0933
      8.80    0.4417    0.0941
      8.90    0.4479    0.0948
      9.00    0.4541    0.0955
      9.10    0.4602    0.0963
      9.20    0.4663    0.0971
      9.30    0.4724    0.0979
      9.40    0.4785    0.0986
      9.50    0.4845    0.0994
      9.60    0.4904    0.1003
      9.70    0.4963    0.1011
      9.80    0.5022    0.1019
      9.90    0.5081    0.1028
     10.00    0.5139    0.1036
     10.10    0.5197    0.1045
     10.20    0.5255    0.1054
     10.30    0.5312    0.1063
     10.40    0.5369    0.1072
     10.50    0.5425    0.1081
     10.60    0.5481    0.1090
     10.70    0.5536    0.1100
     10.80    0.5592    0.1109
     10.90    0.5646    0.1119
     11.00    0.5701    0.1129
     11.10    0.5755    0.1139
     11.20    0.5808    0.1149
     11.30    0.5861    0.1159
     11.40    0.5913    0.1169
     11.50    0.5965    0.1179
     11.60    0.6017    0.1190
     11.70    0.6067    0.1200
     11.80    0.6118    0.1211
     11.90    0.6169    0.1222
     12.00    0.6219    0.1233
     12.10    0.6269    0.1244
     12.20    0.6319    0.1255
     12.30    0.6369    0.1267
     12.40    0.6419    0.1278
     12.50    0.6469    0.1290
     12.60    0.6519    0.1301
     12.70    0.6568    0.1313
     12.80    0.6617    0.1324
     12.90    0.6666    0.1336
     13.00    0.6714    0.1348
     13.10    0.6762    0.1359
     13.20    0.6809    0.1371
     13.30    0.6856    0.1383
     13.40    0.6902    0.1395
     13.50    0.6948    0.1407
     13.60    0.6994    0.1419
     13.70    0.7040    0.1431
     13.80    0.7085    0.1444
     13.90    0.7130    0.1456
     14.00    0.7174    0.1469
     14.10    0.7218    0.1482
     14.20    0.7262    0.1495
     14.30    0.7306    0.1508
     14.40    0.7349    0.1521
     14.50    0.7391    0.1534
     14.60    0.7434    0.1547
     14.70    0.7476    0.1561
     14.80    0.7518    0.1574
     14.90    0.7559    0.1588
     15.00    0.7601    0.1602
     15.10    0.7642    0.1616
     15.20    0.7682    0.1630
     15.30    0.7723    0.1644
     15.40    0.7763    0.1658
     15.50    0.7803    0.1672
     15.60    0.7843    0.1686
     15.70    0.7883    0.1700
     15.80    0.7922    0.1715
     15.90    0.7962    0.1729
     16.00    0.8001    0.1744
     16.10    0.8039    0.1758
     16.20    0.8078    0.1773
     16.30    0.8117    0.1788
     16.40    0.8155    0.1802
     16.50    0.8194    0.1817
     16.60    0.8232    0.1832
     16.70    0.8270    0.1847
     16.80    0.8308    0.1862
     16.90    0.8346    0.1876
     17.00    0.8384    0.1891
     17.10    0.8422    0.1906
     17.20    0.8460    0.1921
     17.30    0.8498    0.1936
     17.40    0.8535    0.1950
     17.50    0.8573    0.1965
     17.60    0.8610    0.1980
     17.70    0.8647    0.1995
     17.80    0.8684    0.2010
     17.90    0.8721    0.2024
     18.00    0.8758    0.2039
     18.10    0.8794    0.2054
     18.20    0.8831    0.2068
     18.30    0.8867    0.2083
     18.40    0.8903    0.2097
     18.50    0.8940    0.2112
     18.60    0.8976    0.2126
     18.70    0.9012    0.2141
     18.80    0.9047    0.2155
     18.90    0.9083    0.2169
     19.00    0.9118    0.2183
     19.10    0.9154    0.2198
     19.20    0.9189    0.2212
     19.30    0.9224    0.2225
     19.40    0.9258    0.2239
     19.50    0.9293    0.2253
     19.60    0.9327    0.2266
     19.70    0.9361    0.2280
     19.80    0.9395    0.2293
     19.90    0.9429    0.2307
     20.00    0.9463    0.2320
