AeroDyn airfoil file Created with QBlade v0.963 64bit on 16.02.2021 at 08:50:33 Compatible with AeroDyn v13.0.
Polar "T1_Re0.005_M0.00_N9.0" on Foil "S1223 RTL" :: generated by QBlade
1              Number of airfoil tables in this file
0              Table ID parameter
20.00          Stall angle (deg)
0              No longer used, enter zero
0              No longer used, enter zero
0              No longer used, enter zero
-9.90          Angle of attack for zero Cn for linear Cn curve (deg)
0.98342        Cn slope for zero lift for linear Cn curve (1/rad)
0.0518         Cn at stall value for positive angle of attack for linear Cn curve
0.0148         Cn at stall value for negative angle of attack for linear Cn curve
4.70           Angle of attack for minimum CD (deg)
0.0632         Minimum CD value
     -8.00    0.0315    0.1174
     -7.90    0.0332    0.1168
     -7.80    0.0348    0.1162
     -7.70    0.0363    0.1157
     -7.60    0.0378    0.1151
     -7.50    0.0393    0.1145
     -7.40    0.0408    0.1140
     -7.30    0.0422    0.1134
     -7.20    0.0436    0.1129
     -7.10    0.0449    0.1123
     -7.00    0.0462    0.1118
     -6.90    0.0474    0.1112
     -6.80    0.0486    0.1107
     -6.70    0.0497    0.1102
     -6.60    0.0508    0.1097
     -6.50    0.0519    0.1092
     -6.40    0.0529    0.1087
     -6.30    0.0539    0.1082
     -6.20    0.0547    0.1077
     -6.10    0.0555    0.1072
     -6.00    0.0563    0.1068
     -5.90    0.0570    0.1063
     -5.80    0.0577    0.1058
     -5.70    0.0584    0.1054
     -5.60    0.0589    0.1049
     -5.50    0.0593    0.1045
     -5.40    0.0597    0.1041
     -5.30    0.0600    0.1037
     -5.20    0.0603    0.1033
     -5.10    0.0605    0.1029
     -5.00    0.0605    0.1025
     -4.90    0.0605    0.1022
     -4.80    0.0605    0.1018
     -4.70    0.0604    0.1015
     -4.60    0.0601    0.1011
     -4.50    0.0597    0.1008
     -4.40    0.0592    0.1005
     -4.30    0.0588    0.1002
     -4.20    0.0581    0.0999
     -4.10    0.0573    0.0997
     -4.00    0.0564    0.0994
     -3.90    0.0555    0.0992
     -3.80    0.0543    0.0990
     -3.70    0.0531    0.0988
     -3.60    0.0517    0.0986
     -3.50    0.0502    0.0985
     -3.40    0.0485    0.0983
     -3.30    0.0465    0.0983
     -3.20    0.0444    0.0982
     -3.10    0.0417    0.0982
     -3.00    0.0386    0.0983
     -2.90    0.0354    0.0985
     -2.80    0.0324    0.0986
     -2.70    0.0293    0.0987
     -2.60    0.0264    0.0988
     -2.50    0.0236    0.0989
     -2.40    0.0210    0.0989
     -2.30    0.0184    0.0990
     -2.20    0.0159    0.0990
     -2.10    0.0135    0.0990
     -2.00    0.0111    0.0990
     -1.90    0.0089    0.0990
     -1.80    0.0067    0.0989
     -1.70    0.0045    0.0989
     -1.60    0.0024    0.0988
     -1.50    0.0003    0.0987
     -1.40   -0.0018    0.0986
     -1.30   -0.0039    0.0985
     -1.20   -0.0060    0.0984
     -1.10   -0.0079    0.0983
     -1.00   -0.0099    0.0982
     -0.90   -0.0119    0.0981
     -0.80   -0.0138    0.0979
     -0.70   -0.0157    0.0978
     -0.60   -0.0176    0.0976
     -0.50   -0.0195    0.0974
     -0.40   -0.0213    0.0972
     -0.30   -0.0231    0.0970
     -0.20   -0.0250    0.0968
     -0.10   -0.0268    0.0966
      0.00   -0.0287    0.0964
      0.10   -0.0306    0.0961
      0.20   -0.0325    0.0959
      0.30   -0.0343    0.0957
      0.40   -0.0362    0.0954
      0.50   -0.0380    0.0951
      0.60   -0.0399    0.0948
      0.70   -0.0418    0.0945
      0.80   -0.0436    0.0942
      0.90   -0.0455    0.0939
      1.00   -0.0473    0.0935
      1.10   -0.0492    0.0932
      1.20   -0.0511    0.0928
      1.30   -0.0530    0.0924
      1.40   -0.0550    0.0920
      1.50   -0.0569    0.0916
      1.60   -0.0589    0.0911
      1.70   -0.0609    0.0907
      1.80   -0.0629    0.0902
      1.90   -0.0649    0.0897
      2.00   -0.0671    0.0892
      2.10   -0.0692    0.0886
      2.20   -0.0714    0.0881
      2.30   -0.0736    0.0875
      2.40   -0.0758    0.0869
      2.50   -0.0780    0.0862
      2.60   -0.0803    0.0855
      2.70   -0.0826    0.0848
      2.80   -0.0849    0.0840
      2.90   -0.0872    0.0832
      3.00   -0.0896    0.0823
      3.10   -0.0921    0.0814
      3.20   -0.0945    0.0805
      3.30   -0.0969    0.0795
      3.40   -0.0994    0.0784
      3.50   -0.1018    0.0773
      3.60   -0.1042    0.0761
      3.70   -0.1066    0.0748
      3.80   -0.1088    0.0735
      3.90   -0.1105    0.0722
      4.00   -0.1113    0.0708
      4.10   -0.1109    0.0694
      4.20   -0.1084    0.0680
      4.30   -0.1031    0.0667
      4.40   -0.0940    0.0655
      4.50   -0.0789    0.0644
      4.60   -0.0544    0.0635
      4.70   -0.0110    0.0632
      4.80    0.0984    0.0648
      4.90    0.2053    0.0681
      5.00    0.2497    0.0699
      5.10    0.2795    0.0713
      5.20    0.3027    0.0725
      5.30    0.3222    0.0736
      5.40    0.3392    0.0747
      5.50    0.3545    0.0757
      5.60    0.3684    0.0767
      5.70    0.3815    0.0776
      5.80    0.3937    0.0786
      5.90    0.4053    0.0796
      6.00    0.4174    0.0819
      6.10    0.4441    0.0971
      6.20    0.4644    0.1036
      6.30    0.4816    0.1078
      6.40    0.4969    0.1110
      6.50    0.5109    0.1136
      6.60    0.5239    0.1159
      6.70    0.5362    0.1180
      6.80    0.5478    0.1199
      6.90    0.5589    0.1216
      7.00    0.5695    0.1233
      7.10    0.5798    0.1249
      7.20    0.5898    0.1264
      7.30    0.5995    0.1279
      7.40    0.6089    0.1293
      7.50    0.6181    0.1307
      7.60    0.6271    0.1321
      7.70    0.6359    0.1334
      7.80    0.6445    0.1347
      7.90    0.6529    0.1360
      8.00    0.6612    0.1372
      8.10    0.6693    0.1385
      8.20    0.6773    0.1397
      8.30    0.6851    0.1409
      8.40    0.6929    0.1421
      8.50    0.7005    0.1433
      8.60    0.7080    0.1445
      8.70    0.7154    0.1457
      8.80    0.7227    0.1469
      8.90    0.7299    0.1480
      9.00    0.7371    0.1492
      9.10    0.7441    0.1503
      9.20    0.7511    0.1515
      9.30    0.7580    0.1526
      9.40    0.7649    0.1537
      9.50    0.7717    0.1549
      9.60    0.7784    0.1560
      9.70    0.7850    0.1571
      9.80    0.7916    0.1582
      9.90    0.7981    0.1593
     10.00    0.8045    0.1604
     10.10    0.8109    0.1615
     10.20    0.8172    0.1626
     10.30    0.8235    0.1637
     10.40    0.8298    0.1648
     10.50    0.8359    0.1659
     10.60    0.8421    0.1670
     10.70    0.8481    0.1681
     10.80    0.8542    0.1692
     10.90    0.8601    0.1703
     11.00    0.8661    0.1714
     11.10    0.8720    0.1725
     11.20    0.8779    0.1736
     11.30    0.8837    0.1747
     11.40    0.8895    0.1758
     11.50    0.8953    0.1769
     11.60    0.9010    0.1780
     11.70    0.9067    0.1791
     11.80    0.9123    0.1801
     11.90    0.9179    0.1812
     12.00    0.9235    0.1823
     12.10    0.9290    0.1834
     12.20    0.9345    0.1845
     12.30    0.9400    0.1856
     12.40    0.9454    0.1867
     12.50    0.9508    0.1878
     12.60    0.9562    0.1889
     12.70    0.9615    0.1899
     12.80    0.9668    0.1910
     12.90    0.9721    0.1921
     13.00    0.9773    0.1932
     13.10    0.9825    0.1943
     13.20    0.9877    0.1954
     13.30    0.9929    0.1965
     13.40    0.9980    0.1976
     13.50    1.0031    0.1987
     13.60    1.0082    0.1998
     13.70    1.0133    0.2009
     13.80    1.0184    0.2020
     13.90    1.0234    0.2031
     14.00    1.0284    0.2042
     14.10    1.0333    0.2053
     14.20    1.0383    0.2064
     14.30    1.0432    0.2075
     14.40    1.0480    0.2086
     14.50    1.0529    0.2097
     14.60    1.0577    0.2108
     14.70    1.0626    0.2119
     14.80    1.0674    0.2130
     14.90    1.0721    0.2140
     15.00    1.0769    0.2151
     15.10    1.0816    0.2162
     15.20    1.0863    0.2173
     15.30    1.0910    0.2184
     15.40    1.0957    0.2195
     15.50    1.1003    0.2206
     15.60    1.1049    0.2218
     15.70    1.1095    0.2229
     15.80    1.1141    0.2240
     15.90    1.1186    0.2251
     16.00    1.1232    0.2262
     16.10    1.1277    0.2273
     16.20    1.1322    0.2284
     16.30    1.1367    0.2295
     16.40    1.1412    0.2306
     16.50    1.1456    0.2317
     16.60    1.1501    0.2328
     16.70    1.1545    0.2339
     16.80    1.1588    0.2351
     16.90    1.1632    0.2362
     17.00    1.1675    0.2373
     17.10    1.1719    0.2384
     17.20    1.1762    0.2395
     17.30    1.1805    0.2406
     17.40    1.1847    0.2417
     17.50    1.1890    0.2428
     17.60    1.1932    0.2439
     17.70    1.1974    0.2450
     17.80    1.2016    0.2461
     17.90    1.2058    0.2473
     18.00    1.2099    0.2484
     18.10    1.2140    0.2495
     18.20    1.2181    0.2506
     18.30    1.2222    0.2517
     18.40    1.2263    0.2529
     18.50    1.2303    0.2540
     18.60    1.2344    0.2551
     18.70    1.2384    0.2562
     18.80    1.2424    0.2573
     18.90    1.2464    0.2584
     19.00    1.2503    0.2595
     19.10    1.2543    0.2607
     19.20    1.2582    0.2618
     19.30    1.2621    0.2629
     19.40    1.2660    0.2640
     19.50    1.2699    0.2651
     19.60    1.2738    0.2662
     19.70    1.2776    0.2673
     19.80    1.2814    0.2684
     19.90    1.2852    0.2696
     20.00    1.2890    0.2707
