AeroDyn airfoil file Created with QBlade v0.963 64bit on 16.02.2021 at 08:50:33 Compatible with AeroDyn v13.0.
Polar "T1_Re0.010_M0.00_N9.0" on Foil "S1223 RTL" :: generated by QBlade
1              Number of airfoil tables in this file
0              Table ID parameter
20.00          Stall angle (deg)
0              No longer used, enter zero
0              No longer used, enter zero
0              No longer used, enter zero
-10.95         Angle of attack for zero Cn for linear Cn curve (deg)
0.10966        Cn slope for zero lift for linear Cn curve (1/rad)
0.2718         Cn at stall value for positive angle of attack for linear Cn curve
0.0456         Cn at stall value for negative angle of attack for linear Cn curve
-2.80          Angle of attack for minimum CD (deg)
0.0733         Minimum CD value
     -8.00    0.0617    0.1116
     -7.90    0.0638    0.1109
     -7.80    0.0659    0.1102
     -7.70    0.0678    0.1096
     -7.60    0.0698    0.1089
     -7.50    0.0718    0.1082
     -7.40    0.0737    0.1076
     -7.30    0.0757    0.1069
     -7.20    0.0776    0.1062
     -7.10    0.0795    0.1056
     -7.00    0.0814    0.1050
     -6.90    0.0831    0.1043
     -6.80    0.0848    0.1037
     -6.70    0.0865    0.1031
     -6.50    0.1538    0.0970
     -6.40    0.1636    0.0957
     -6.30    0.1715    0.0946
     -6.20    0.1782    0.0936
     -6.10    0.1842    0.0926
     -6.00    0.1895    0.0918
     -5.90    0.1943    0.0909
     -5.80    0.1987    0.0902
     -5.70    0.2028    0.0894
     -5.60    0.2067    0.0887
     -5.50    0.2103    0.0880
     -5.40    0.2138    0.0873
     -5.30    0.2172    0.0866
     -5.20    0.2204    0.0860
     -5.10    0.2235    0.0853
     -5.00    0.2266    0.0847
     -4.90    0.2295    0.0841
     -4.80    0.2324    0.0835
     -4.70    0.2351    0.0829
     -4.60    0.2378    0.0823
     -4.50    0.2405    0.0817
     -4.40    0.2431    0.0812
     -4.30    0.2456    0.0806
     -4.20    0.2481    0.0800
     -4.10    0.2505    0.0795
     -4.00    0.2528    0.0790
     -3.90    0.2551    0.0785
     -3.80    0.2573    0.0779
     -3.70    0.2595    0.0774
     -3.60    0.2616    0.0769
     -3.50    0.2636    0.0764
     -3.40    0.2657    0.0760
     -3.30    0.2676    0.0755
     -3.20    0.2696    0.0750
     -3.10    0.2714    0.0746
     -3.00    0.2731    0.0741
     -2.90    0.2748    0.0737
     -2.80    0.2757    0.0733
     -2.70    0.2619    0.0739
     -2.60    0.2483    0.0746
     -2.50    0.2345    0.0754
     -2.40    0.2222    0.0760
     -2.30    0.2111    0.0764
     -2.20    0.1971    0.0772
     -2.10    0.1886    0.0774
     -2.00    0.1748    0.0782
     -1.90    0.1667    0.0784
     -1.80    0.1552    0.0789
     -1.70    0.1430    0.0796
     -1.60    0.1360    0.0796
     -1.50    0.1216    0.0804
     -1.40    0.1127    0.0808
     -1.30    0.1051    0.0809
     -1.20    0.0902    0.0818
     -1.10    0.0786    0.0824
     -1.00    0.0726    0.0824
     -0.90    0.0598    0.0831
     -0.80    0.0410    0.0845
     -0.70    0.0310    0.0851
     -0.60    0.0220    0.0858
     -0.50    0.0085    0.0870
     -0.40   -0.0077    0.0886
     -0.30   -0.0261    0.0903
     -0.20   -0.0458    0.0920
     -0.10   -0.0647    0.0936
      0.00   -0.0686    0.0938
      0.10   -0.0786    0.0944
      0.20   -0.0911    0.0953
      0.30   -0.1054    0.0962
      0.40   -0.1211    0.0973
      0.50   -0.1364    0.0983
      0.60   -0.1368    0.0980
      0.70   -0.1434    0.0982
      0.80   -0.1530    0.0986
      0.90   -0.1646    0.0994
      1.00   -0.1655    0.0992
      1.10   -0.1657    0.0989
      1.20   -0.1686    0.0990
      1.30   -0.1713    0.0996
      1.40   -0.1655    0.0988
      1.50   -0.1606    0.0984
      1.60   -0.1544    0.0981
      1.70   -0.1427    0.0982
      1.80   -0.1338    0.0974
      1.90   -0.1233    0.0968
      2.00   -0.1109    0.0963
      2.10   -0.0965    0.0957
      2.20   -0.0793    0.0952
      2.30   -0.0590    0.0948
      2.40   -0.0396    0.0943
      2.50   -0.0216    0.0938
      2.60   -0.0045    0.0933
      2.70    0.0139    0.0929
      2.80    0.0379    0.0926
      2.90    0.0596    0.0922
      3.00    0.0711    0.0917
      3.10    0.0909    0.0914
      3.20    0.1061    0.0910
      3.30    0.1203    0.0906
      3.50    0.1521    0.0900
      3.60    0.1568    0.0894
      3.70    0.1678    0.0889
      3.80    0.1781    0.0884
      3.90    0.1846    0.0878
      4.00    0.1893    0.0871
      4.10    0.1943    0.0861
      4.20    0.2020    0.0847
      4.40    0.5548    0.1008
      4.50    0.5704    0.1024
      4.60    0.5846    0.1040
      4.70    0.5975    0.1054
      4.80    0.6094    0.1068
      4.90    0.6204    0.1082
      5.00    0.6307    0.1096
      5.10    0.6404    0.1110
      5.20    0.6496    0.1123
      5.30    0.6583    0.1136
      5.40    0.6668    0.1149
      5.50    0.6749    0.1162
      5.60    0.6828    0.1174
      5.70    0.6905    0.1186
      5.80    0.6979    0.1199
      5.90    0.7051    0.1211
      6.00    0.7121    0.1223
      6.10    0.7190    0.1235
      6.20    0.7258    0.1247
      6.30    0.7324    0.1259
      6.40    0.7389    0.1270
      6.50    0.7452    0.1282
      6.60    0.7515    0.1294
      6.70    0.7577    0.1305
      6.80    0.7638    0.1317
      6.90    0.7698    0.1329
      7.00    0.7758    0.1340
      7.10    0.7817    0.1352
      7.20    0.7876    0.1363
      7.30    0.7934    0.1375
      7.40    0.7991    0.1386
      7.50    0.8049    0.1398
      7.60    0.8105    0.1409
      7.70    0.8161    0.1420
      7.80    0.8217    0.1432
      7.90    0.8272    0.1443
      8.00    0.8326    0.1454
      8.10    0.8380    0.1465
      8.20    0.8434    0.1476
      8.30    0.8488    0.1488
      8.40    0.8541    0.1499
      8.50    0.8593    0.1510
      8.60    0.8646    0.1521
      8.70    0.8698    0.1532
      8.80    0.8750    0.1543
      8.90    0.8802    0.1554
      9.00    0.8854    0.1565
      9.10    0.8906    0.1576
      9.20    0.8957    0.1587
      9.30    0.9008    0.1598
      9.40    0.9058    0.1609
      9.50    0.9108    0.1620
      9.60    0.9158    0.1631
      9.70    0.9208    0.1642
      9.80    0.9258    0.1653
      9.90    0.9307    0.1664
     10.00    0.9357    0.1675
     10.10    0.9406    0.1686
     10.20    0.9454    0.1696
     10.30    0.9503    0.1707
     10.40    0.9551    0.1718
     10.50    0.9599    0.1729
     10.60    0.9647    0.1740
     10.70    0.9695    0.1751
     10.80    0.9743    0.1761
     10.90    0.9790    0.1772
     11.00    0.9838    0.1783
     11.10    0.9885    0.1794
     11.20    0.9933    0.1804
     11.30    0.9980    0.1815
     11.40    1.0027    0.1826
     11.50    1.0074    0.1836
     11.60    1.0120    0.1847
     11.70    1.0167    0.1858
     11.80    1.0213    0.1868
     11.90    1.0259    0.1879
     12.00    1.0305    0.1890
     12.10    1.0351    0.1900
     12.20    1.0396    0.1911
     12.30    1.0442    0.1922
     12.40    1.0487    0.1932
     12.50    1.0532    0.1943
     12.60    1.0577    0.1954
     12.70    1.0622    0.1964
     12.80    1.0667    0.1975
     12.90    1.0712    0.1985
     13.00    1.0756    0.1996
     13.10    1.0800    0.2006
     13.20    1.0844    0.2017
     13.30    1.0888    0.2028
     13.40    1.0932    0.2038
     13.50    1.0976    0.2049
     13.60    1.1020    0.2059
     13.70    1.1064    0.2070
     13.80    1.1107    0.2080
     13.90    1.1151    0.2090
     14.00    1.1194    0.2101
     14.10    1.1238    0.2111
     14.20    1.1281    0.2121
     14.30    1.1323    0.2132
     14.40    1.1366    0.2142
     14.50    1.1409    0.2153
     14.60    1.1451    0.2163
     14.70    1.1493    0.2174
     14.80    1.1535    0.2184
     14.90    1.1577    0.2195
     15.00    1.1619    0.2205
     15.10    1.1661    0.2215
     15.20    1.1703    0.2226
     15.30    1.1744    0.2236
     15.40    1.1785    0.2246
     15.50    1.1827    0.2257
     15.60    1.1868    0.2267
     15.70    1.1909    0.2277
     15.80    1.1949    0.2287
     15.90    1.1990    0.2298
     16.00    1.2031    0.2308
     16.10    1.2071    0.2318
     16.20    1.2112    0.2328
     16.30    1.2152    0.2338
     16.40    1.2192    0.2348
     16.50    1.2232    0.2358
     16.60    1.2272    0.2369
     16.70    1.2312    0.2379
     16.80    1.2352    0.2389
     16.90    1.2391    0.2399
     17.00    1.2431    0.2410
     17.10    1.2470    0.2420
     17.20    1.2509    0.2430
     17.30    1.2548    0.2440
     17.40    1.2587    0.2449
     17.50    1.2626    0.2459
     17.60    1.2664    0.2469
     17.70    1.2703    0.2479
     17.80    1.2741    0.2489
     17.90    1.2779    0.2499
     18.00    1.2817    0.2509
     18.10    1.2855    0.2519
     18.20    1.2893    0.2528
     18.30    1.2931    0.2538
     18.40    1.2968    0.2548
     18.50    1.3006    0.2558
     18.60    1.3043    0.2568
     18.70    1.3080    0.2577
     18.80    1.3117    0.2587
     18.90    1.3154    0.2597
     19.00    1.3191    0.2607
     19.10    1.3227    0.2617
     19.20    1.3264    0.2627
     19.30    1.3300    0.2637
     19.40    1.3336    0.2647
     19.50    1.3372    0.2657
     19.60    1.3408    0.2666
     19.70    1.3444    0.2676
     19.80    1.3480    0.2686
     19.90    1.3515    0.2696
     20.00    1.3551    0.2706
