AeroDyn airfoil file Created with QBlade v0.963 64bit on 16.02.2021 at 08:50:33 Compatible with AeroDyn v13.0.
Polar "T1_Re0.100_M0.00_N9.0" on Foil "S1223 RTL" :: generated by QBlade
1              Number of airfoil tables in this file
0              Table ID parameter
11.00          Stall angle (deg)
0              No longer used, enter zero
0              No longer used, enter zero
0              No longer used, enter zero
0.00           Angle of attack for zero Cn for linear Cn curve (deg)
10.02876       Cn slope for zero lift for linear Cn curve (1/rad)
0.1831         Cn at stall value for positive angle of attack for linear Cn curve
0.1748         Cn at stall value for negative angle of attack for linear Cn curve
-0.40          Angle of attack for minimum CD (deg)
0.0252         Minimum CD value
     -8.00    0.1907    0.1007
     -7.90    0.1928    0.1000
     -7.80    0.1947    0.0994
     -7.70    0.1961    0.0987
     -7.60    0.1972    0.0982
     -7.50    0.1975    0.0977
     -7.40    0.1968    0.0975
     -7.30    0.1942    0.0976
     -7.20    0.1896    0.0980
     -7.10    0.1840    0.0984
     -7.00    0.1786    0.0988
     -6.90    0.1736    0.0991
     -6.80    0.1687    0.0993
     -6.70    0.1641    0.0993
     -6.60    0.1593    0.0993
     -6.50    0.1545    0.0993
     -6.40    0.1505    0.0991
     -6.30    0.1484    0.0988
     -6.20    0.1949    0.0899
     -6.10    0.2032    0.0885
     -6.00    0.2080    0.0875
     -5.90    0.2111    0.0867
     -5.80    0.2131    0.0859
     -5.70    0.2143    0.0853
     -5.60    0.2149    0.0847
     -5.50    0.2149    0.0842
     -5.40    0.2143    0.0837
     -5.30    0.2130    0.0832
     -5.20    0.2109    0.0829
     -5.10    0.2078    0.0825
     -5.00    0.2035    0.0823
     -4.90    0.1983    0.0822
     -4.80    0.1933    0.0823
     -4.70    0.1880    0.0827
     -4.60    0.1870    0.0831
     -4.50    0.1905    0.0830
     -4.40    0.1962    0.0824
     -4.30    0.1921    0.0795
     -4.20    0.1919    0.0777
     -4.10    0.1943    0.0764
     -4.00    0.1978    0.0753
     -3.90    0.2016    0.0744
     -3.80    0.2052    0.0736
     -3.70    0.2084    0.0729
     -3.60    0.2115    0.0722
     -3.50    0.2145    0.0715
     -3.40    0.2177    0.0708
     -3.30    0.2214    0.0700
     -3.10    0.2563    0.0672
     -3.00    0.2544    0.0660
     -2.90    0.2539    0.0652
     -2.80    0.2548    0.0644
     -2.70    0.2568    0.0637
     -2.60    0.2597    0.0631
     -2.50    0.2636    0.0626
     -2.40    0.2708    0.0619
     -2.20    0.3044    0.0589
     -2.10    0.3043    0.0585
     -2.00    0.3070    0.0579
     -1.90    0.3139    0.0573
     -1.80    0.6699    0.0307
     -1.70    0.6954    0.0299
     -1.60    0.7219    0.0290
     -1.50    0.7455    0.0281
     -1.40    0.7608    0.0278
     -1.30    0.7765    0.0276
     -1.20    0.7943    0.0273
     -1.10    0.8121    0.0269
     -1.00    0.8286    0.0267
     -0.90    0.8477    0.0262
     -0.80    0.8641    0.0259
     -0.70    0.8789    0.0258
     -0.60    0.8967    0.0255
     -0.50    0.9141    0.0254
     -0.40    0.9408    0.0252
     -0.30    0.9493    0.0255
     -0.20    0.9576    0.0257
     -0.10    0.9660    0.0260
      0.00    0.9734    0.0261
      0.10    0.9815    0.0264
      0.20    0.9896    0.0265
      0.30    0.9962    0.0267
      0.40    1.0063    0.0269
      0.50    1.0126    0.0270
      0.60    1.0219    0.0272
      0.70    1.0334    0.0273
      0.80    1.0421    0.0273
      0.90    1.0527    0.0274
      1.00    1.0651    0.0275
      1.10    1.0780    0.0275
      1.20    1.0877    0.0276
      1.30    1.0981    0.0276
      1.40    1.1099    0.0277
      1.50    1.1232    0.0278
      1.60    1.1335    0.0279
      1.70    1.1440    0.0279
      1.80    1.1552    0.0280
      1.90    1.1676    0.0281
      2.00    1.1783    0.0282
      2.10    1.1882    0.0283
      2.20    1.1990    0.0284
      2.30    1.2108    0.0285
      2.40    1.2205    0.0286
      2.50    1.2308    0.0287
      2.60    1.2424    0.0288
      2.70    1.2527    0.0289
      2.80    1.2626    0.0290
      2.90    1.2733    0.0291
      3.00    1.2833    0.0292
      3.10    1.2923    0.0293
      3.20    1.3025    0.0294
      3.30    1.3116    0.0295
      3.40    1.3208    0.0296
      3.50    1.3303    0.0297
      3.60    1.3389    0.0298
      3.70    1.3482    0.0299
      3.80    1.3564    0.0300
      3.90    1.3646    0.0301
      4.00    1.3719    0.0301
      4.10    1.3759    0.0301
      4.30    1.3866    0.0301
      4.40    1.3986    0.0304
      4.50    1.4096    0.0306
      4.60    1.4201    0.0309
      4.70    1.4301    0.0311
      4.80    1.4397    0.0313
      4.90    1.4491    0.0316
      5.00    1.4582    0.0318
      5.10    1.4672    0.0320
      5.20    1.4760    0.0323
      5.30    1.4847    0.0325
      5.40    1.4932    0.0328
      5.50    1.5016    0.0330
      5.60    1.5099    0.0333
      5.70    1.5180    0.0335
      5.90    1.5340    0.0341
      6.00    1.5418    0.0343
      6.10    1.5496    0.0346
      6.20    1.5572    0.0349
      6.30    1.5648    0.0352
      6.40    1.5723    0.0354
      6.50    1.5798    0.0357
      6.60    1.5871    0.0360
      6.70    1.5944    0.0363
      6.80    1.6016    0.0366
      6.90    1.6086    0.0370
      7.00    1.6155    0.0373
      7.10    1.6223    0.0376
      7.20    1.6290    0.0379
      7.30    1.6356    0.0383
      7.40    1.6421    0.0386
      7.50    1.6486    0.0390
      7.60    1.6549    0.0393
      7.70    1.6611    0.0397
      7.80    1.6672    0.0401
      7.90    1.6731    0.0405
      8.00    1.6790    0.0409
      8.10    1.6847    0.0413
      8.20    1.6904    0.0417
      8.30    1.6959    0.0421
      8.40    1.7014    0.0426
      8.50    1.7067    0.0430
      8.60    1.7118    0.0435
      8.70    1.7168    0.0439
      8.80    1.7217    0.0444
      8.90    1.7264    0.0449
      9.00    1.7310    0.0454
      9.10    1.7355    0.0459
      9.20    1.7398    0.0465
      9.30    1.7439    0.0470
      9.40    1.7478    0.0476
      9.50    1.7516    0.0482
      9.60    1.7552    0.0488
      9.70    1.7587    0.0495
      9.80    1.7619    0.0501
      9.90    1.7649    0.0508
     10.00    1.7677    0.0515
     10.10    1.7704    0.0522
     10.20    1.7729    0.0530
     10.30    1.7751    0.0538
     10.40    1.7770    0.0546
     10.50    1.7786    0.0555
     10.60    1.7801    0.0563
     10.70    1.7814    0.0573
     10.80    1.7821    0.0582
     10.90    1.7824    0.0593
     11.00    1.7826    0.0604
     11.10    1.7825    0.0615
     11.20    1.7817    0.0627
     11.30    1.7806    0.0640
     11.40    1.7792    0.0653
     11.50    1.7770    0.0668
     11.60    1.7742    0.0684
     11.70    1.7709    0.0701
     11.80    1.7664    0.0720
     11.90    1.7612    0.0740
     12.00    1.7542    0.0764
     12.10    1.7457    0.0790
     12.20    1.7346    0.0822
     12.30    1.7198    0.0862
     12.40    1.6993    0.0915
     12.50    1.6745    0.0979
     12.60    1.6516    0.1043
     12.70    1.6329    0.1097
     12.80    1.6175    0.1145
     12.90    1.6048    0.1187
     13.00    1.5942    0.1225
     13.10    1.5855    0.1259
     13.20    1.5776    0.1291
     13.30    1.5709    0.1321
     13.40    1.5653    0.1349
     13.50    1.5604    0.1375
     13.60    1.5560    0.1401
     13.70    1.5517    0.1426
     13.80    1.5480    0.1450
     13.90    1.5448    0.1474
     14.00    1.5420    0.1496
     14.10    1.5397    0.1518
     14.20    1.5377    0.1539
     14.30    1.5356    0.1561
     14.40    1.5337    0.1582
     14.50    1.5322    0.1602
     14.60    1.5309    0.1622
     14.70    1.5299    0.1642
     14.80    1.5291    0.1661
     14.90    1.5284    0.1680
     15.00    1.5277    0.1699
     15.10    1.5270    0.1718
     15.20    1.5262    0.1737
     15.30    1.5256    0.1756
     15.40    1.5250    0.1775
     15.50    1.5247    0.1793
     15.60    1.5245    0.1811
     15.70    1.5244    0.1829
     15.80    1.5242    0.1847
     15.90    1.5239    0.1865
     16.00    1.5235    0.1884
     16.10    1.5231    0.1903
     16.20    1.5229    0.1921
     16.30    1.5230    0.1938
     16.40    1.5231    0.1956
     16.50    1.5232    0.1973
     16.60    1.5234    0.1990
     16.70    1.5235    0.2008
     16.80    1.5234    0.2026
     16.90    1.5232    0.2044
     17.00    1.5232    0.2062
     17.10    1.5235    0.2079
     17.20    1.5238    0.2096
     17.30    1.5241    0.2113
     17.40    1.5245    0.2130
     17.50    1.5248    0.2147
     17.60    1.5253    0.2163
     17.70    1.5258    0.2180
     17.80    1.5265    0.2196
     17.90    1.5274    0.2211
     18.00    1.5284    0.2226
     18.10    1.5294    0.2241
     18.20    1.5306    0.2256
     18.30    1.5318    0.2270
     18.40    1.5332    0.2284
     18.50    1.5346    0.2298
     18.60    1.5362    0.2311
     18.70    1.5378    0.2324
     18.80    1.5395    0.2336
     18.90    1.5413    0.2349
     19.00    1.5432    0.2361
     19.10    1.5451    0.2372
     19.20    1.5471    0.2384
     19.30    1.5491    0.2395
     19.40    1.5513    0.2406
     19.50    1.5534    0.2417
     19.60    1.5556    0.2428
     19.70    1.5579    0.2438
     19.80    1.5602    0.2449
     19.90    1.5625    0.2459
     20.00    1.5648    0.2469
